
  EPA STORM WATER MANAGEMENT MODEL - VERSION 5.1 (Build 5.1.009)
  --------------------------------------------------------------

  WARNING 04: minimum elevation drop used for Conduit PLT82451
  WARNING 04: minimum elevation drop used for Conduit PLT82450
  WARNING 04: minimum elevation drop used for Conduit PLT81685
  WARNING 04: minimum elevation drop used for Conduit PLT81686
  WARNING 04: minimum elevation drop used for Conduit PLT82321
  WARNING 04: minimum elevation drop used for Conduit PLT82322
  WARNING 02: maximum depth increased for Node PMP92850
  WARNING 02: maximum depth increased for Node PMP92917
  WARNING 02: maximum depth increased for Node PMP93088
  WARNING 02: maximum depth increased for Node PMP93019
  WARNING 02: maximum depth increased for Node PMP93016
  WARNING 02: maximum depth increased for Node PMP92949
  WARNING 02: maximum depth increased for Node PMP92979
  WARNING 02: maximum depth increased for Node PMP93012
  WARNING 02: maximum depth increased for Node PMP92945
  WARNING 02: maximum depth increased for Node PMP92838
  WARNING 02: maximum depth increased for Node PMP93051
  WARNING 02: maximum depth increased for Node PMP93049
  WARNING 02: maximum depth increased for Node PMP92942
  WARNING 02: maximum depth increased for Node PMC98478
  WARNING 02: maximum depth increased for Node PMP92973
  WARNING 02: maximum depth increased for Node CRE01
  WARNING 02: maximum depth increased for Node CRE02
  WARNING 02: maximum depth increased for Node CRE05
  
  *********************************************************
  NOTE: The summary statistics displayed in this report are
  based on results found at every computational time step,  
  not just on results from each reporting time step.
  *********************************************************
  
  ****************
  Analysis Options
  ****************
  Flow Units ............... LPS
  Process Models:
    Rainfall/Runoff ........ NO
    RDII ................... NO
    Snowmelt ............... NO
    Groundwater ............ NO
    Flow Routing ........... YES
    Ponding Allowed ........ NO
    Water Quality .......... NO
  Flow Routing Method ...... DYNWAVE
  Starting Date ............ AUG-23-2013 00:00:00
  Ending Date .............. AUG-23-2013 02:00:00
  Antecedent Dry Days ...... 0.0
  Report Time Step ......... 00:15:00
  Routing Time Step ........ 30.00 sec
  Variable Time Step ....... YES
  Maximum Trials ........... 8
  Number of Threads ........ 4
  Head Tolerance ........... 0.001524 m
  
  
  **************************        Volume        Volume
  Flow Routing Continuity        hectare-m      10^6 ltr
  **************************     ---------     ---------
  Dry Weather Inflow .......         0.000         0.000
  Wet Weather Inflow .......         0.000         0.000
  Groundwater Inflow .......         0.000         0.000
  RDII Inflow ..............         0.000         0.000
  External Inflow ..........         0.000         0.000
  External Outflow .........         0.000         0.000
  Flooding Loss ............         0.000         0.000
  Evaporation Loss .........         0.000         0.000
  Exfiltration Loss ........         0.000         0.000
  Initial Stored Volume ....         0.000         0.001
  Final Stored Volume ......         0.000         0.005
  Continuity Error (%) .....      -238.153
  
  
  *************************
  Highest Continuity Errors
  *************************
  Node PMP93067 (94.74%)
  Node PMP92954 (93.20%)
  Node CRE07 (88.61%)
  Node PMP92951 (46.68%)
  Node PMP92904 (-21.53%)
  
  
  ***************************
  Time-Step Critical Elements
  ***************************
  Node PMI92748 (1.22%)
  
  
  ********************************
  Highest Flow Instability Indexes
  ********************************
  Link PLT85675 (3)
  Link PLT85720 (2)
  Link PLT85679 (2)
  Link PLT85740 (1)
  Link PLT85881 (1)
  
  
  *************************
  Routing Time Step Summary
  *************************
  Minimum Time Step           :     4.65 sec
  Average Time Step           :    29.39 sec
  Maximum Time Step           :    30.00 sec
  Percent in Steady State     :     0.00
  Average Iterations per Step :     2.12
  Percent Not Converging      :     0.82
  
  
  ******************
  Node Depth Summary
  ******************
  
  ---------------------------------------------------------------------------------
                                 Average  Maximum  Maximum  Time of Max    Reported
                                   Depth    Depth      HGL   Occurrence   Max Depth
  Node                 Type       Meters   Meters   Meters  days hr:min      Meters
  ---------------------------------------------------------------------------------
  PMI92748             JUNCTION     0.01     0.89  2572.86     0  00:00        0.00
  PMP93182             JUNCTION     0.00     0.00  2587.65     0  00:00        0.00
  PMP92904             JUNCTION     0.01     0.16  2571.58     0  00:00        0.00
  PMP92903             JUNCTION     0.01     0.09  2571.47     0  00:01        0.00
  PMI92766             JUNCTION     0.00     0.00  2569.21     0  00:00        0.00
  PMI92813             JUNCTION     0.00     0.00  2585.93     0  00:00        0.00
  PMP93199             JUNCTION     0.00     0.00  2585.48     0  00:00        0.00
  PMP92936             JUNCTION     0.01     0.05  2570.87     0  00:03        0.00
  PMP93043             JUNCTION     0.00     0.00  2583.34     0  00:00        0.00
  PMI92774             JUNCTION     0.00     0.00  2575.59     0  00:00        0.00
  PMP93042             JUNCTION     0.00     0.00  2580.23     0  00:00        0.00
  PMI92787             JUNCTION     0.00     0.00  2575.80     0  00:00        0.00
  PMP93041             JUNCTION     0.00     0.00  2568.38     0  00:00        0.00
  PMP92907             JUNCTION     0.00     0.00  2575.35     0  00:00        0.00
  PMP92902             JUNCTION     0.00     0.00  2576.12     0  00:00        0.00
  PMI92775             JUNCTION     0.00     0.00  2572.07     0  00:00        0.00
  PMI92764             JUNCTION     0.00     0.00  2575.26     0  00:00        0.00
  PMP92827             JUNCTION     0.00     0.00  2565.41     0  00:00        0.00
  PMP92935             JUNCTION     0.00     0.00  2571.99     0  00:00        0.00
  PMP92828             JUNCTION     0.00     0.00  2567.75     0  00:00        0.00
  PMP92901             JUNCTION     0.00     0.04  2568.18     0  00:04        0.00
  PMP92965             JUNCTION     0.00     0.00  2571.56     0  00:00        0.00
  PMI92722             JUNCTION     0.00     0.00  2578.57     0  00:00        0.00
  PMP93107             JUNCTION     0.00     0.00  2574.53     0  00:00        0.00
  PMP92934             JUNCTION     0.00     0.00  2570.06     0  00:00        0.00
  PMI92772             JUNCTION     0.00     0.00  2559.17     0  00:00        0.00
  PMP92964             JUNCTION     0.00     0.00  2568.39     0  00:00        0.00
  PMP93077             JUNCTION     0.00     0.00  2567.87     0  00:00        0.00
  PMP92900             JUNCTION     0.00     0.00  2565.14     0  00:00        0.00
  PMP93040             JUNCTION     0.00     0.00  2563.97     0  00:00        0.00
  PMP93198             JUNCTION     0.01     0.05  2564.64     0  00:06        0.01
  PMP92963             JUNCTION     0.00     0.00  2557.94     0  00:00        0.00
  PMI92747             JUNCTION     0.00     0.00  2577.05     0  00:00        0.00
  PMP93004             JUNCTION     0.00     0.00  2573.25     0  00:00        0.00
  PMP93039             JUNCTION     0.01     0.04  2563.64     0  00:08        0.01
  PMP93038             JUNCTION     0.00     0.00  2556.28     0  00:00        0.00
  PMP92933             JUNCTION     0.00     0.00  2567.97     0  00:00        0.00
  PMI92735             JUNCTION     0.00     0.00  2563.67     0  00:00        0.00
  PMP92864             JUNCTION     0.01     0.03  2561.90     0  00:10        0.01
  PMP92962             JUNCTION     0.00     0.00  2554.61     0  00:00        0.00
  PMI92744             JUNCTION     0.00     0.00  2580.81     0  00:00        0.00
  PMP106155            JUNCTION     0.00     0.00  2559.00     0  00:00        0.00
  PMI92791             JUNCTION     0.00     0.00  2572.91     0  00:00        0.00
  PMP93003             JUNCTION     0.00     0.00  2565.84     0  00:00        0.00
  PMP92932             JUNCTION     0.00     0.00  2553.70     0  00:00        0.00
  PMP93002             JUNCTION     0.01     0.03  2558.63     0  00:11        0.01
  PMP92961             JUNCTION     0.00     0.00  2551.61     0  00:00        0.00
  PMP106385            JUNCTION     0.00     0.00  2558.65     0  00:00        0.00
  PMP93197             JUNCTION     0.00     0.00  2580.31     0  00:00        0.00
  PMP92931             JUNCTION     0.00     0.00  2568.49     0  00:00        0.00
  PMP93205             JUNCTION     0.01     0.04  2557.19     0  00:12        0.01
  PMP93000             JUNCTION     0.00     0.00  2563.08     0  00:00        0.00
  PMP106386            JUNCTION     0.00     0.00  2558.60     0  00:00        0.00
  PMCI106387           JUNCTION     0.00     0.00  2558.41     0  00:00        0.00
  PMP93046             JUNCTION     0.00     0.00  2552.23     0  00:00        0.00
  PMI92790             JUNCTION     0.00     0.00  2580.68     0  00:00        0.00
  PMI92763             JUNCTION     0.00     0.00  2554.63     0  00:00        0.00
  PMP93076             JUNCTION     0.00     0.00  2580.22     0  00:00        0.00
  PMI92786             JUNCTION     0.00     0.00  2560.66     0  00:00        0.00
  PMP92970             JUNCTION     0.00     0.00  2579.38     0  00:00        0.00
  PMP92960             JUNCTION     0.00     0.00  2551.02     0  00:00        0.00
  PMP106384            JUNCTION     0.01     0.04  2556.53     0  00:14        0.01
  PMP92899             JUNCTION     0.00     0.00  2565.88     0  00:00        0.00
  PMI92749             JUNCTION     0.00     0.00  2552.93     0  00:00        0.00
  PMP93001             JUNCTION     0.00     0.00  2551.89     0  00:00        0.00
  PMP92863             JUNCTION     0.00     0.00  2561.41     0  00:00        0.00
  PMP93037             JUNCTION     0.00     0.00  2551.74     0  00:00        0.00
  PMP93075             JUNCTION     0.01     0.03  2555.32     0  00:15        0.01
  PMP93105             JUNCTION     0.00     0.00  2564.21     0  00:00        0.00
  PMP92898             JUNCTION     0.00     0.00  2551.61     0  00:00        0.00
  PMP93104             JUNCTION     0.00     0.00  2550.42     0  00:00        0.00
  PMP92999             JUNCTION     0.01     0.04  2554.70     0  00:16        0.01
  PMI92762             JUNCTION     0.00     0.00  2552.10     0  00:00        0.00
  PMP92929             JUNCTION     0.00     0.00  2571.91     0  00:00        0.00
  PMI92792             JUNCTION     0.00     0.00  2556.61     0  00:00        0.00
  PMP93036             JUNCTION     0.00     0.00  2558.57     0  00:00        0.00
  PMP92959             JUNCTION     0.00     0.00  2571.62     0  00:00        0.00
  PMP93103             JUNCTION     0.00     0.00  2553.65     0  00:00        0.00
  PMP92897             JUNCTION     0.00     0.00  2549.73     0  00:00        0.00
  PMP92896             JUNCTION     0.01     0.03  2553.42     0  00:18        0.01
  PMI92819             JUNCTION     0.00     0.00  2550.11     0  00:00        0.00
  PMP92888             JUNCTION     0.00     0.00  2553.73     0  00:00        0.00
  PMI92761             JUNCTION     0.00     0.00  2551.46     0  00:00        0.00
  PMI92734             JUNCTION     0.00     0.00  2555.97     0  00:00        0.00
  PMP93035             JUNCTION     0.00     0.00  2569.08     0  00:00        0.00
  PMI92751             JUNCTION     0.00     0.00  2554.36     0  00:00        0.00
  PMP92958             JUNCTION     0.00     0.00  2562.48     0  00:00        0.00
  PMI92785             JUNCTION     0.00     0.00  2560.92     0  00:00        0.00
  PMP93102             JUNCTION     0.00     0.00  2551.59     0  00:00        0.00
  PMI92812             JUNCTION     0.00     0.00  2553.95     0  00:00        0.00
  PMP92996             JUNCTION     0.00     0.00  2556.77     0  00:00        0.00
  PMP93074             JUNCTION     0.00     0.00  2551.47     0  00:00        0.00
  PMP92865             JUNCTION     0.00     0.00  2556.21     0  00:00        0.00
  PMI92771             JUNCTION     0.00     0.00  2568.25     0  00:00        0.00
  PMP92928             JUNCTION     0.01     0.04  2552.56     0  00:20        0.01
  PMP92995             JUNCTION     0.00     0.00  2566.28     0  00:00        0.00
  PMP92876             JUNCTION     0.00     0.00  2556.14     0  00:00        0.00
  PMP92957             JUNCTION     0.00     0.00  2567.34     0  00:00        0.00
  PMP93101             JUNCTION     0.02     0.07  2552.49     0  00:25        0.02
  PMI92733             JUNCTION     0.00     0.00  2550.99     0  00:00        0.00
  PMP92994             JUNCTION     0.00     0.00  2559.15     0  00:00        0.00
  PMI92736             JUNCTION     0.00     0.00  2552.88     0  00:00        0.00
  PMP93034             JUNCTION     0.00     0.00  2549.41     0  00:00        0.00
  PMP92867             JUNCTION     0.00     0.00  2568.90     0  00:00        0.00
  PMP93100             JUNCTION     0.00     0.00  2563.27     0  00:00        0.00
  PMP105957            JUNCTION     0.00     0.00  2547.94     0  00:00        0.00
  PMP92938             JUNCTION     0.00     0.00  2551.09     0  00:00        0.00
  PMP93099             JUNCTION     0.00     0.00  2555.55     0  00:00        0.00
  PMI105971            JUNCTION     0.00     0.00  2548.58     0  00:00        0.00
  PMI92784             JUNCTION     0.00     0.00  2569.15     0  00:00        0.00
  PMP93073             JUNCTION     0.01     0.03  2552.40     0  00:30        0.01
  PMP105970            JUNCTION     0.00     0.00  2547.32     0  00:00        0.00
  PMP92821             JUNCTION     0.00     0.00  2547.31     0  00:00        0.00
  PMP105960            JUNCTION     0.00     0.00  2547.81     0  00:00        0.00
  PMI92797             JUNCTION     0.00     0.00  2567.90     0  00:00        0.00
  PMP108535            JUNCTION     0.00     0.00  2557.18     0  00:00        0.00
  PMP108536            JUNCTION     0.00     0.00  2557.29     0  00:00        0.00
  PMP92820             JUNCTION     0.00     0.00  2547.14     0  00:00        0.00
  PMI92754             JUNCTION     0.00     0.00  2555.04     0  00:00        0.00
  PMP92956             JUNCTION     0.00     0.00  2556.74     0  00:00        0.00
  PMP93139             JUNCTION     0.00     0.00  2546.92     0  00:00        0.00
  PMP105962            JUNCTION     0.00     0.00  2547.45     0  00:00        0.00
  PMP93228             JUNCTION     0.00     0.00  2546.54     0  00:00        0.00
  PMP92927             JUNCTION     0.00     0.00  2561.15     0  00:00        0.00
  PMP92969             JUNCTION     0.00     0.00  2566.62     0  00:00        0.00
  PMP93108             JUNCTION     0.00     0.00  2552.38     0  00:00        0.00
  PMI105964            JUNCTION     0.00     0.00  2548.28     0  00:00        0.00
  PMP92968             JUNCTION     0.00     0.00  2547.60     0  00:00        0.00
  PMP93033             JUNCTION     0.00     0.00  2550.65     0  00:00        0.00
  PMP92862             JUNCTION     0.00     0.00  2563.96     0  00:00        0.00
  PMP92955             JUNCTION     0.00     0.00  2554.98     0  00:00        0.00
  PMP108534            JUNCTION     0.00     0.00  2556.63     0  00:00        0.00
  PMP93098             JUNCTION     0.00     0.00  2565.99     0  00:00        0.00
  PMP105968            JUNCTION     0.00     0.00  2547.48     0  00:00        0.00
  PMI92756             JUNCTION     0.00     0.00  2568.85     0  00:00        0.00
  PMP92822             JUNCTION     0.00     0.00  2547.74     0  00:00        0.00
  PMP93097             JUNCTION     0.00     0.00  2548.96     0  00:00        0.00
  PMP92926             JUNCTION     0.01     0.02  2551.26     0  00:33        0.01
  PMI92760             JUNCTION     0.00     0.00  2550.02     0  00:00        0.00
  PMP93096             JUNCTION     0.00     0.00  2547.99     0  00:00        0.00
  PMP92895             JUNCTION     0.00     0.00  2551.66     0  00:00        0.00
  PMP106083            JUNCTION     0.00     0.00  2548.65     0  00:00        0.00
  PMP63246             JUNCTION     0.00     0.00  2546.80     0  00:00        0.00
  PMP106082            JUNCTION     0.00     0.00  2548.18     0  00:00        0.00
  PMI92753             JUNCTION     0.00     0.00  2557.31     0  00:00        0.00
  PMP92993             JUNCTION     0.00     0.00  2558.70     0  00:00        0.00
  PMP106065            JUNCTION     0.00     0.00  2547.63     0  00:00        0.00
  PMP106006            JUNCTION     0.00     0.00  2548.02     0  02:00        0.00
  PMP106084            JUNCTION     0.00     0.00  2548.82     0  00:00        0.00
  PMI92783             JUNCTION     0.00     0.00  2556.36     0  00:00        0.00
  PMP92861             JUNCTION     0.00     0.00  2563.19     0  00:00        0.00
  PMP108538            JUNCTION     0.00     0.00  2556.43     0  00:00        0.00
  PMP63245             JUNCTION     0.00     0.00  2546.80     0  00:00        0.00
  PMP108537            JUNCTION     0.00     0.00  2556.60     0  00:00        0.00
  PMP106071            JUNCTION     0.00     0.00  2547.94     0  00:00        0.00
  PMI106007            JUNCTION     0.00     0.00  2549.02     0  00:00        0.00
  PMP92860             JUNCTION     0.00     0.00  2550.39     0  00:00        0.00
  PMP106077            JUNCTION     0.00     0.00  2548.08     0  00:00        0.00
  PMP93031             JUNCTION     0.00     0.00  2553.85     0  00:00        0.00
  PMI92782             JUNCTION     0.00     0.00  2553.31     0  00:00        0.00
  PMP92925             JUNCTION     0.01     0.03  2549.00     0  00:36        0.01
  PMP106064            JUNCTION     0.00     0.00  2547.69     0  00:00        0.00
  PMP92924             JUNCTION     0.00     0.00  2562.56     0  00:00        0.00
  PMP106081            JUNCTION     0.00     0.00  2548.22     0  00:00        0.00
  PMP93072             JUNCTION     0.00     0.00  2557.47     0  00:00        0.00
  PMP93071             JUNCTION     0.00     0.00  2563.56     0  00:00        0.00
  PMP93179             JUNCTION     0.00     0.00  2561.80     0  00:00        0.00
  PMP93151             JUNCTION     0.00     0.00  2548.28     0  00:00        0.00
  PMI92781             JUNCTION     0.00     0.00  2558.31     0  00:00        0.00
  PMP92992             JUNCTION     0.00     0.00  2555.78     0  00:00        0.00
  PMP92921             JUNCTION     0.00     0.00  2564.93     0  00:00        0.00
  PMP92954             JUNCTION     0.00     0.00  2548.17     0  02:00        0.00
  PMP92894             JUNCTION     0.00     0.00  2555.73     0  00:00        0.00
  PMP93170             JUNCTION     0.00     0.00  2548.33     0  00:00        0.00
  PMP93219             JUNCTION     0.00     0.00  2549.68     0  00:00        0.00
  PMP93030             JUNCTION     0.00     0.00  2561.29     0  00:00        0.00
  PMP92923             JUNCTION     0.00     0.00  2555.72     0  00:00        0.00
  PMP93070             JUNCTION     0.00     0.00  2564.87     0  00:00        0.00
  PMI92732             JUNCTION     0.00     0.00  2563.95     0  00:00        0.00
  PMP93069             JUNCTION     0.00     0.00  2550.01     0  00:00        0.00
  PMP92859             JUNCTION     0.00     0.00  2560.88     0  00:00        0.00
  PMP92893             JUNCTION     0.00     0.00  2553.30     0  00:00        0.00
  PMP106066            JUNCTION     0.00     0.00  2547.74     0  00:00        0.00
  PMP92953             JUNCTION     0.00     0.00  2561.79     0  00:00        0.00
  PMP92892             JUNCTION     0.00     0.00  2564.38     0  00:00        0.00
  PMP93068             JUNCTION     0.00     0.00  2556.89     0  00:00        0.00
  PMP106067            JUNCTION     0.00     0.00  2547.75     0  00:00        0.00
  PMP93095             JUNCTION     0.02     0.04  2548.68     0  00:44        0.01
  PMP106085            JUNCTION     0.00     0.00  2548.74     0  00:00        0.00
  PMP92991             JUNCTION     0.00     0.00  2552.08     0  00:00        0.00
  PMI92796             JUNCTION     0.00     0.00  2555.20     0  00:00        0.00
  PMI60590             JUNCTION     0.00     0.00  2546.80     0  00:00        0.00
  PMP93094             JUNCTION     0.00     0.00  2555.84     0  00:00        0.00
  PMP106068            JUNCTION     0.00     0.00  2547.83     0  00:00        0.00
  PMP93110             JUNCTION     0.00     0.00  2554.95     0  00:00        0.00
  PMP93067             JUNCTION     0.00     0.00  2548.34     0  02:00        0.00
  PMP92937             JUNCTION     0.00     0.00  2556.10     0  00:00        0.00
  PMP92952             JUNCTION     0.00     0.00  2553.96     0  00:00        0.00
  PMP93220             JUNCTION     0.00     0.00  2549.95     0  00:00        0.00
  PMC98457             JUNCTION     0.00     0.00  2554.00     0  00:00        0.00
  PMP93171             JUNCTION     0.00     0.00  2548.42     0  00:00        0.00
  PMP92990             JUNCTION     0.00     0.00  2553.02     0  00:00        0.00
  PMP92857             JUNCTION     0.00     0.00  2554.43     0  00:00        0.00
  PMP92906             JUNCTION     0.00     0.00  2562.51     0  00:00        0.00
  PMI106008            JUNCTION     0.00     0.00  2549.00     0  00:00        0.00
  PMP93028             JUNCTION     0.00     0.00  2554.84     0  00:00        0.00
  PMP93029             JUNCTION     0.02     0.05  2548.57     0  00:58        0.01
  PMP93093             JUNCTION     0.00     0.00  2560.00     0  00:00        0.00
  PMP93066             JUNCTION     0.00     0.00  2559.97     0  00:00        0.00
  PMP93092             JUNCTION     0.00     0.00  2548.89     0  00:00        0.00
  PMI92773             JUNCTION     0.00     0.00  2560.45     0  00:00        0.00
  PMP92856             JUNCTION     0.00     0.00  2553.65     0  00:00        0.00
  PMP92930             JUNCTION     0.00     0.00  2566.56     0  00:00        0.00
  PMP106070            JUNCTION     0.00     0.00  2547.87     0  00:00        0.00
  PMP93065             JUNCTION     0.00     0.00  2554.56     0  00:00        0.00
  PMP93027             JUNCTION     0.00     0.00  2555.76     0  00:00        0.00
  PMP92989             JUNCTION     0.00     0.00  2559.35     0  00:00        0.00
  PMP93005             JUNCTION     0.00     0.00  2553.61     0  00:00        0.00
  PMP92988             JUNCTION     0.00     0.00  2552.61     0  00:00        0.00
  PMP93026             JUNCTION     0.00     0.00  2554.59     0  00:00        0.00
  PMP92855             JUNCTION     0.00     0.00  2552.68     0  00:00        0.00
  PMP93172             JUNCTION     0.00     0.00  2550.10     0  00:00        0.00
  PMP92891             JUNCTION     0.02     0.03  2548.53     0  01:06        0.01
  PMI92745             JUNCTION     0.00     0.00  2556.60     0  00:00        0.00
  PMP93045             JUNCTION     0.00     0.00  2559.73     0  00:00        0.00
  PMP92854             JUNCTION     0.00     0.00  2553.60     0  00:00        0.00
  PMP93173             JUNCTION     0.00     0.00  2548.54     0  00:00        0.00
  PMI92808             JUNCTION     0.00     0.00  2558.47     0  00:00        0.00
  PMP92853             JUNCTION     0.00     0.00  2554.28     0  00:00        0.00
  PMP93091             JUNCTION     0.00     0.00  2558.39     0  00:00        0.00
  PMP92984             JUNCTION     0.00     0.00  2553.39     0  00:00        0.00
  PMC98455             JUNCTION     0.00     0.00  2554.36     0  00:00        0.00
  PMP93148             JUNCTION     0.00     0.00  2560.28     0  00:00        0.00
  PMP92922             JUNCTION     0.00     0.00  2560.25     0  00:00        0.00
  PMP92983             JUNCTION     0.00     0.00  2560.55     0  00:00        0.00
  PMP106072            JUNCTION     0.00     0.00  2547.92     0  00:00        0.00
  PMP93210             JUNCTION     0.00     0.00  2557.84     0  00:00        0.00
  PMI92795             JUNCTION     0.00     0.00  2563.35     0  00:00        0.00
  PMP93025             JUNCTION     0.02     0.04  2548.48     0  01:16        0.01
  PMP93023             JUNCTION     0.00     0.00  2554.74     0  00:00        0.00
  PMP93064             JUNCTION     0.00     0.00  2555.95     0  00:00        0.00
  PMP92951             JUNCTION     0.01     0.02  2548.38     0  01:42        0.01
  PMP93024             JUNCTION     0.02     0.04  2548.48     0  01:15        0.01
  PMI92780             JUNCTION     0.00     0.00  2556.74     0  00:00        0.00
  PMP93063             JUNCTION     0.00     0.00  2562.52     0  00:00        0.00
  PMP92852             JUNCTION     0.00     0.00  2552.43     0  00:00        0.00
  PMP93090             JUNCTION     0.00     0.00  2548.61     0  00:00        0.00
  PMP92851             JUNCTION     0.00     0.00  2550.07     0  00:00        0.00
  PMP92850             JUNCTION     0.00     0.00  2553.25     0  00:00        0.00
  PMP92889             JUNCTION     0.00     0.00  2562.77     0  00:00        0.00
  PMP92890             JUNCTION     0.00     0.00  2558.76     0  00:00        0.00
  PMP93221             JUNCTION     0.00     0.00  2550.15     0  00:00        0.00
  PMP93022             JUNCTION     0.00     0.00  2551.43     0  00:00        0.00
  PMP93021             JUNCTION     0.00     0.00  2548.73     0  00:00        0.00
  PMP92849             JUNCTION     0.00     0.00  2556.49     0  00:00        0.00
  PMI92759             JUNCTION     0.00     0.00  2553.55     0  00:00        0.00
  PMP92920             JUNCTION     0.00     0.00  2556.69     0  00:00        0.00
  PMP92919             JUNCTION     0.00     0.00  2561.90     0  00:00        0.00
  PMP106073            JUNCTION     0.00     0.00  2547.95     0  00:00        0.00
  PMP92848             JUNCTION     0.00     0.00  2555.99     0  00:00        0.00
  PMP92918             JUNCTION     0.00     0.00  2555.73     0  00:00        0.00
  PMP105972            JUNCTION     0.00     0.00  2549.34     0  00:00        0.00
  PMP93089             JUNCTION     0.00     0.00  2548.56     0  00:00        0.00
  PMP92917             JUNCTION     0.00     0.00  2553.05     0  00:00        0.00
  PMP106074            JUNCTION     0.00     0.00  2548.37     0  00:00        0.00
  PMP106076            JUNCTION     0.00     0.00  2548.18     0  00:00        0.00
  PMP92887             JUNCTION     0.00     0.00  2552.34     0  00:00        0.00
  PMP92879             JUNCTION     0.00     0.00  2550.77     0  00:00        0.00
  PMP106069            JUNCTION     0.00     0.00  2548.93     0  00:00        0.00
  PMP93062             JUNCTION     0.00     0.00  2554.28     0  00:00        0.00
  PMP92886             JUNCTION     0.00     0.00  2560.99     0  00:00        0.00
  PMP93020             JUNCTION     0.00     0.00  2548.21     0  00:00        0.00
  PMI92731             JUNCTION     0.00     0.00  2555.44     0  00:00        0.00
  PMP92847             JUNCTION     0.00     0.00  2557.62     0  00:00        0.00
  PMP92967             JUNCTION     0.00     0.00  2554.98     0  00:00        0.00
  PMP93147             JUNCTION     0.00     0.00  2550.52     0  00:00        0.00
  PMP92885             JUNCTION     0.00     0.00  2548.92     0  00:00        0.00
  PMP106075            JUNCTION     0.00     0.00  2548.44     0  00:00        0.00
  PMI92750             JUNCTION     0.00     0.00  2552.56     0  00:00        0.00
  PMP93088             JUNCTION     0.00     0.00  2552.86     0  00:00        0.00
  PMI92752             JUNCTION     0.00     0.00  2554.53     0  00:00        0.00
  PMP92916             JUNCTION     0.00     0.00  2555.57     0  00:00        0.00
  PMP92884             JUNCTION     0.00     0.00  2562.94     0  00:00        0.00
  PMP93174             JUNCTION     0.00     0.00  2548.95     0  00:00        0.00
  PMP92883             JUNCTION     0.00     0.00  2551.84     0  00:00        0.00
  PMP92844             JUNCTION     0.00     0.00  2555.33     0  00:00        0.00
  PMP93109             JUNCTION     0.00     0.00  2551.65     0  00:00        0.00
  PMP92845             JUNCTION     0.00     0.00  2556.30     0  00:00        0.00
  PMP93195             JUNCTION     0.00     0.00  2553.07     0  00:00        0.00
  PMI92765             JUNCTION     0.00     0.00  2552.36     0  00:00        0.00
  PMI92743             JUNCTION     0.00     0.00  2554.39     0  00:00        0.00
  PMP93019             JUNCTION     0.00     0.00  2552.56     0  00:00        0.00
  PMP93157             JUNCTION     0.00     0.00  2550.86     0  00:00        0.00
  PMP93061             JUNCTION     0.00     0.00  2550.32     0  00:00        0.00
  PMI92811             JUNCTION     0.00     0.00  2553.50     0  00:00        0.00
  PMP93196             JUNCTION     0.00     0.00  2552.94     0  00:00        0.00
  PMP93146             JUNCTION     0.00     0.00  2549.05     0  00:00        0.00
  PMP93160             JUNCTION     0.00     0.00  2551.74     0  00:00        0.00
  PMP93044             JUNCTION     0.00     0.00  2551.18     0  00:00        0.00
  PMP93017             JUNCTION     0.00     0.00  2549.43     0  00:00        0.00
  PMP92905             JUNCTION     0.00     0.00  2554.76     0  00:00        0.00
  PMP93137             JUNCTION     0.00     0.00  2551.01     0  00:00        0.00
  PMP93018             JUNCTION     0.00     0.00  2561.67     0  00:00        0.00
  PMP106087            JUNCTION     0.00     0.00  2548.63     0  00:00        0.00
  PMP92843             JUNCTION     0.00     0.00  2555.46     0  00:00        0.00
  PMP92882             JUNCTION     0.00     0.00  2555.74     0  00:00        0.00
  PMP106078            JUNCTION     0.00     0.00  2548.82     0  00:00        0.00
  PMP92881             JUNCTION     0.00     0.00  2553.71     0  00:00        0.00
  PMI92730             JUNCTION     0.00     0.00  2556.28     0  00:00        0.00
  PMP93159             JUNCTION     0.00     0.00  2549.51     0  00:00        0.00
  PMP92842             JUNCTION     0.00     0.00  2551.93     0  00:00        0.00
  PMP92841             JUNCTION     0.00     0.00  2553.42     0  00:00        0.00
  PMP93158             JUNCTION     0.00     0.00  2551.11     0  00:00        0.00
  PMP93016             JUNCTION     0.00     0.00  2552.37     0  00:00        0.00
  PMP92950             JUNCTION     0.00     0.00  2554.38     0  00:00        0.00
  PMI92742             JUNCTION     0.00     0.00  2549.97     0  00:00        0.00
  PMI92768             JUNCTION     0.00     0.00  2552.05     0  00:00        0.00
  PMP92880             JUNCTION     0.00     0.00  2555.45     0  00:00        0.00
  PMP92915             JUNCTION     0.00     0.00  2549.62     0  00:00        0.00
  PMP93086             JUNCTION     0.00     0.00  2555.89     0  00:00        0.00
  PMP93218             JUNCTION     0.00     0.00  2549.41     0  00:00        0.00
  PMP92878             JUNCTION     0.00     0.00  2549.22     0  00:00        0.00
  PMP92949             JUNCTION     0.00     0.00  2552.25     0  00:00        0.00
  PMP92981             JUNCTION     0.00     0.00  2554.37     0  00:00        0.00
  PMP93060             JUNCTION     0.00     0.00  2553.22     0  00:00        0.00
  PMP93161             JUNCTION     0.00     0.00  2549.56     0  00:00        0.00
  PMP92840             JUNCTION     0.00     0.00  2555.44     0  00:00        0.00
  PMP93056             JUNCTION     0.00     0.00  2555.33     0  00:00        0.00
  PMP92877             JUNCTION     0.00     0.00  2549.12     0  00:00        0.00
  PMP93059             JUNCTION     0.00     0.00  2549.39     0  00:00        0.00
  PMP93193             JUNCTION     0.00     0.00  2553.07     0  00:00        0.00
  PMP92980             JUNCTION     0.00     0.00  2555.39     0  00:00        0.00
  PMP92914             JUNCTION     0.00     0.00  2551.96     0  00:00        0.00
  PMI106004            JUNCTION     0.00     0.00  2549.46     0  00:00        0.00
  PMP106086            JUNCTION     0.00     0.00  2548.75     0  00:00        0.00
  PMI92779             JUNCTION     0.00     0.00  2556.51     0  00:00        0.00
  PMP93055             JUNCTION     0.00     0.00  2553.94     0  00:00        0.00
  PMP92948             JUNCTION     0.00     0.00  2551.51     0  00:00        0.00
  PMP93058             JUNCTION     0.00     0.00  2549.24     0  00:00        0.00
  PMP93121             JUNCTION     0.00     0.00  2551.82     0  00:00        0.00
  PMI92778             JUNCTION     0.00     0.00  2553.16     0  00:00        0.00
  PMP92947             JUNCTION     0.00     0.00  2555.40     0  00:00        0.00
  PMI92740             JUNCTION     0.00     0.00  2550.96     0  00:00        0.00
  PMI92755             JUNCTION     0.00     0.00  2553.65     0  00:00        0.00
  PMP93015             JUNCTION     0.00     0.00  2550.70     0  00:00        0.00
  PMI92800             JUNCTION     0.00     0.00  2551.42     0  00:00        0.00
  PMP93085             JUNCTION     0.00     0.00  2550.63     0  00:00        0.00
  PMI92777             JUNCTION     0.00     0.00  2555.85     0  00:00        0.00
  PMP93057             JUNCTION     0.00     0.00  2551.27     0  00:00        0.00
  PMI92729             JUNCTION     0.00     0.00  2554.01     0  00:00        0.00
  PMP93194             JUNCTION     0.00     0.00  2549.59     0  00:00        0.00
  PMI92767             JUNCTION     0.00     0.00  2555.84     0  00:00        0.00
  PMP93119             JUNCTION     0.00     0.00  2551.17     0  00:00        0.00
  PMP93014             JUNCTION     0.00     0.00  2551.21     0  00:00        0.00
  PMP92913             JUNCTION     0.00     0.00  2551.98     0  00:00        0.00
  PMP92977             JUNCTION     0.00     0.00  2550.24     0  00:00        0.00
  PMP92979             JUNCTION     0.00     0.00  2549.14     0  00:00        0.00
  PMI92758             JUNCTION     0.00     0.00  2551.80     0  00:00        0.00
  PMP92872             JUNCTION     0.00     0.00  2549.96     0  00:00        0.00
  PMI92757             JUNCTION     0.00     0.00  2554.96     0  00:00        0.00
  PMI92737             JUNCTION     0.00     0.00  2553.60     0  00:00        0.00
  PMP92846             JUNCTION     0.00     0.00  2553.57     0  00:00        0.00
  PMP93013             JUNCTION     0.00     0.00  2552.29     0  00:00        0.00
  PMP93012             JUNCTION     0.00     0.00  2549.58     0  00:00        0.00
  PMP93185             JUNCTION     0.00     0.00  2551.96     0  00:00        0.00
  PMP93129             JUNCTION     0.00     0.00  2551.49     0  00:00        0.00
  PMP93084             JUNCTION     0.00     0.00  2549.62     0  00:00        0.00
  PMP93054             JUNCTION     0.00     0.00  2554.10     0  00:00        0.00
  PMI92810             JUNCTION     0.00     0.00  2553.16     0  00:00        0.00
  PMP92946             JUNCTION     0.00     0.00  2551.06     0  00:00        0.00
  PMP93128             JUNCTION     0.00     0.00  2551.29     0  00:00        0.00
  PMI92809             JUNCTION     0.00     0.00  2556.10     0  00:00        0.00
  PMP93192             JUNCTION     0.00     0.00  2552.60     0  00:00        0.00
  PMP93123             JUNCTION     0.00     0.00  2549.98     0  00:00        0.00
  PMP92945             JUNCTION     0.00     0.00  2550.97     0  00:00        0.00
  PMP93184             JUNCTION     0.00     0.00  2552.25     0  00:00        0.00
  PMP93011             JUNCTION     0.00     0.00  2551.24     0  00:00        0.00
  PMP93180             JUNCTION     0.00     0.00  2553.23     0  00:00        0.00
  PMP92966             JUNCTION     0.00     0.00  2553.19     0  00:00        0.00
  PMP92871             JUNCTION     0.00     0.00  2554.70     0  00:00        0.00
  PMP92838             JUNCTION     0.00     0.00  2550.74     0  00:00        0.00
  PMP92976             JUNCTION     0.00     0.00  2554.01     0  00:00        0.00
  PMP93183             JUNCTION     0.00     0.00  2552.27     0  00:00        0.00
  PMI92739             JUNCTION     0.00     0.00  2554.82     0  00:00        0.00
  PMP93181             JUNCTION     0.00     0.00  2553.26     0  00:00        0.00
  PMP93053             JUNCTION     0.00     0.00  2552.72     0  00:00        0.00
  PMP92870             JUNCTION     0.00     0.00  2553.26     0  00:00        0.00
  PMI92741             JUNCTION     0.00     0.00  2553.59     0  00:00        0.00
  PMP93052             JUNCTION     0.00     0.00  2554.04     0  00:00        0.00
  PMP92944             JUNCTION     0.00     0.00  2552.99     0  00:00        0.00
  PMP93051             JUNCTION     0.00     0.00  2550.08     0  00:00        0.00
  PMP92975             JUNCTION     0.00     0.00  2555.23     0  00:00        0.00
  PMP92873             JUNCTION     0.00     0.00  2553.13     0  00:00        0.00
  PMP93122             JUNCTION     0.00     0.00  2550.10     0  00:00        0.00
  PMP92874             JUNCTION     0.00     0.00  2553.37     0  00:00        0.00
  PMP93050             JUNCTION     0.00     0.00  2553.07     0  00:00        0.00
  PMP93010             JUNCTION     0.00     0.00  2550.17     0  00:00        0.00
  PMI92789             JUNCTION     0.00     0.00  2552.72     0  00:00        0.00
  PMP92943             JUNCTION     0.00     0.00  2551.91     0  00:00        0.00
  PMP92875             JUNCTION     0.00     0.00  2553.10     0  00:00        0.00
  PMP115624            JUNCTION     0.00     0.00  2552.11     0  00:00        0.00
  PMP92911             JUNCTION     0.00     0.00  2552.35     0  00:00        0.00
  PMP93083             JUNCTION     0.00     0.00  2553.45     0  00:00        0.00
  PMP93049             JUNCTION     0.00     0.00  2549.74     0  00:00        0.00
  PMP93127             JUNCTION     0.00     0.00  2551.57     0  00:00        0.00
  PMP93126             JUNCTION     0.00     0.00  2551.95     0  00:00        0.00
  PMP92942             JUNCTION     0.00     0.00  2549.67     0  00:00        0.00
  PMC98478             JUNCTION     0.00     0.00  2549.67     0  00:00        0.00
  PMP92941             JUNCTION     0.00     0.00  2551.47     0  00:00        0.00
  PMP92912             JUNCTION     0.00     0.00  2554.49     0  00:00        0.00
  PMP60972             JUNCTION     0.00     0.00  2549.80     0  00:00        0.00
  PMP92974             JUNCTION     0.00     0.00  2549.77     0  00:00        0.00
  PMP93082             JUNCTION     0.00     0.00  2553.38     0  00:00        0.00
  PMP92973             JUNCTION     0.00     0.00  2549.69     0  00:00        0.00
  PMP92978             JUNCTION     0.00     0.00  2549.75     0  00:00        0.00
  PMP93190             JUNCTION     0.00     0.00  2550.30     0  00:00        0.00
  PMP93124             JUNCTION     0.00     0.00  2550.15     0  00:00        0.00
  PMI92738             JUNCTION     0.00     0.00  2551.43     0  00:00        0.00
  PMP115623            JUNCTION     0.00     0.00  2551.84     0  00:00        0.00
  PMP93189             JUNCTION     0.00     0.00  2550.97     0  00:00        0.00
  PMP92972             JUNCTION     0.00     0.00  2551.37     0  00:00        0.00
  PMP93081             JUNCTION     0.00     0.00  2553.88     0  00:00        0.00
  PMP93009             JUNCTION     0.00     0.00  2553.40     0  00:00        0.00
  PMP92834             JUNCTION     0.00     0.00  2551.05     0  00:00        0.00
  PMP92998             JUNCTION     0.00     0.00  2550.51     0  00:00        0.00
  PMP63233             JUNCTION     0.00     0.00  2549.80     0  00:00        0.00
  PMI92788             JUNCTION     0.00     0.00  2552.23     0  00:00        0.00
  PMP93136             JUNCTION     0.00     0.00  2550.24     0  00:00        0.00
  PMP93008             JUNCTION     0.00     0.00  2550.35     0  00:00        0.00
  PMP93125             JUNCTION     0.00     0.00  2550.80     0  00:00        0.00
  PMP93188             JUNCTION     0.00     0.00  2550.99     0  00:00        0.00
  PMP93080             JUNCTION     0.00     0.00  2553.74     0  00:00        0.00
  PMI92794             JUNCTION     0.00     0.00  2550.70     0  00:00        0.00
  PMI92802             JUNCTION     0.00     0.00  2552.23     0  00:00        0.00
  PMP93187             JUNCTION     0.00     0.00  2551.40     0  00:00        0.00
  PMP93079             JUNCTION     0.00     0.00  2549.83     0  00:00        0.00
  PMP62782             JUNCTION     0.00     0.00  2549.80     0  00:00        0.00
  PMP93048             JUNCTION     0.00     0.00  2552.37     0  00:00        0.00
  PMI92799             JUNCTION     0.00     0.00  2551.71     0  00:00        0.00
  PMP93111             JUNCTION     0.00     0.00  2551.91     0  00:00        0.00
  PMP93114             JUNCTION     0.00     0.00  2551.47     0  00:00        0.00
  PMP93113             JUNCTION     0.00     0.00  2551.79     0  00:00        0.00
  PMP92830             JUNCTION     0.00     0.00  2551.38     0  00:00        0.00
  PMP93116             JUNCTION     0.00     0.00  2551.34     0  00:00        0.00
  PMP93112             JUNCTION     0.00     0.00  2551.59     0  00:00        0.00
  PMP93117             JUNCTION     0.00     0.00  2551.25     0  00:00        0.00
  PMI92793             JUNCTION     0.00     0.00  2554.42     0  00:00        0.00
  PMP92866             JUNCTION     0.00     0.00  2551.05     0  00:00        0.00
  PMP93186             JUNCTION     0.00     0.00  2552.37     0  00:00        0.00
  PMP93178             JUNCTION     0.00     0.00  2553.97     0  00:00        0.00
  PMI92806             JUNCTION     0.00     0.00  2554.29     0  00:00        0.00
  PMP93131             JUNCTION     0.00     0.00  2550.83     0  00:00        0.00
  PMP92910             JUNCTION     0.00     0.00  2550.76     0  00:00        0.00
  PMP93115             JUNCTION     0.00     0.00  2552.06     0  00:00        0.00
  PMP93177             JUNCTION     0.00     0.00  2554.22     0  00:00        0.00
  PMP93213             JUNCTION     0.00     0.00  2550.40     0  00:00        0.00
  PMP93209             JUNCTION     0.00     0.00  2550.67     0  00:00        0.00
  PMP93212             JUNCTION     0.00     0.00  2550.45     0  00:00        0.00
  PMP93078             JUNCTION     0.00     0.00  2554.24     0  00:00        0.00
  PMP93132             JUNCTION     0.00     0.00  2550.54     0  00:00        0.00
  PMP92940             JUNCTION     0.00     0.00  2551.82     0  00:00        0.00
  PMP92971             JUNCTION     0.00     0.00  2550.43     0  00:00        0.00
  PMP93006             JUNCTION     0.00     0.00  2551.62     0  00:00        0.00
  PMP93007             JUNCTION     0.00     0.00  2550.50     0  00:00        0.00
  PMP63313             JUNCTION     0.00     0.00  2553.80     0  00:00        0.00
  PMP93176             JUNCTION     0.00     0.00  2554.32     0  00:00        0.00
  PMP92908             JUNCTION     0.00     0.00  2550.56     0  00:00        0.00
  PMP92939             JUNCTION     0.00     0.00  2551.52     0  00:00        0.00
  PMI92776             JUNCTION     0.00     0.00  2551.08     0  00:00        0.00
  PMP92869             JUNCTION     0.00     0.00  2551.29     0  00:00        0.00
  PMP93135             JUNCTION     0.00     0.00  2550.69     0  00:00        0.00
  PMP93118             JUNCTION     0.00     0.00  2551.20     0  00:00        0.00
  PMP92909             JUNCTION     0.00     0.00  2549.96     0  00:00        0.00
  PMP93134             JUNCTION     0.00     0.00  2550.96     0  00:00        0.00
  PMP63314             JUNCTION     0.00     0.00  2553.80     0  00:00        0.00
  PMP92868             JUNCTION     0.00     0.00  2551.10     0  00:00        0.00
  PMI92801             JUNCTION     0.00     0.00  2552.35     0  00:00        0.00
  PMI92807             JUNCTION     0.00     0.00  2554.44     0  00:00        0.00
  PMP92829             JUNCTION     0.00     0.00  2550.11     0  00:00        0.00
  PMP93175             JUNCTION     0.00     0.00  2554.42     0  00:00        0.00
  PMP93133             JUNCTION     0.00     0.00  2550.93     0  00:00        0.00
  PMI92803             JUNCTION     0.00     0.00  2551.03     0  00:00        0.00
  PMP93130             JUNCTION     0.00     0.00  2551.00     0  00:00        0.00
  PMP93047             JUNCTION     0.00     0.00  2550.84     0  00:00        0.00
  PMP63315             JUNCTION     0.00     0.00  2553.80     0  00:00        0.00
  PMP92997             JUNCTION     0.00     0.00  2550.64     0  00:00        0.00
  PMP93227             JUNCTION     0.00     0.00  2550.51     0  00:00        0.00
  PMP93225             JUNCTION     0.00     0.00  2550.20     0  00:00        0.00
  PMP93226             JUNCTION     0.00     0.00  2550.31     0  00:00        0.00
  PMP92986             JUNCTION     0.00     0.00  2550.26     0  00:00        0.00
  PMP63316             JUNCTION     0.00     0.00  2551.80     0  00:00        0.00
  PMP93152             JUNCTION     0.00     0.00  2550.59     0  00:00        0.00
  PMP93156             JUNCTION     0.00     0.00  2550.67     0  00:00        0.00
  PMP93155             JUNCTION     0.00     0.00  2551.15     0  00:00        0.00
  PMP92985             JUNCTION     0.00     0.00  2550.82     0  00:00        0.00
  PMI92804             JUNCTION     0.00     0.00  2551.84     0  00:00        0.00
  PMI92770             JUNCTION     0.00     0.00  2550.63     0  00:00        0.00
  PMP93224             JUNCTION     0.00     0.00  2551.68     0  00:00        0.00
  PMP93153             JUNCTION     0.00     0.00  2551.49     0  00:00        0.00
  PMP93154             JUNCTION     0.00     0.00  2551.28     0  00:00        0.00
  CRE01                JUNCTION     0.00     0.00  2547.28     0  00:00        0.00
  CRE02                JUNCTION     0.00     0.00  2547.92     0  00:00        0.00
  CRE03                JUNCTION     0.00     0.00  2548.76     0  00:00        0.00
  CRE04                JUNCTION     0.00     0.00  2548.77     0  00:00        0.00
  CRE05                JUNCTION     0.00     0.00  2549.08     0  00:00        0.00
  CRE06                JUNCTION     0.00     0.00  2569.79     0  00:00        0.00
  CRE07                JUNCTION     0.00     0.01  2548.36     0  02:00        0.00
  CRE08                JUNCTION     0.00     0.00  2556.75     0  00:00        0.00
  CRE09                JUNCTION     0.00     0.00  2587.55     0  00:00        0.00
  DESC                 OUTFALL      0.00     0.00  2544.93     0  00:00        0.00
  
  
  *******************
  Node Inflow Summary
  *******************
  
  -------------------------------------------------------------------------------------------------
                                  Maximum  Maximum                  Lateral       Total        Flow
                                  Lateral    Total  Time of Max      Inflow      Inflow     Balance
                                   Inflow   Inflow   Occurrence      Volume      Volume       Error
  Node                 Type           LPS      LPS  days hr:min    10^6 ltr    10^6 ltr     Percent
  -------------------------------------------------------------------------------------------------
  PMI92748             JUNCTION      0.00     0.00     0  00:00           0           0    -100.000
  PMP93182             JUNCTION      0.00     0.00     0  00:00           0           0       0.000 ltr
  PMP92904             JUNCTION      0.00   110.85     0  00:00           0     0.00341     -17.718
  PMP92903             JUNCTION      0.00    59.63     0  00:00           0     0.00415       2.831
  PMI92766             JUNCTION      0.00     0.00     0  00:00           0           0       0.000 ltr
  PMI92813             JUNCTION      0.00     0.00     0  00:00           0           0       0.000 ltr
  PMP93199             JUNCTION      0.00     0.00     0  00:00           0           0       0.000 ltr
  PMP92936             JUNCTION      0.00    15.03     0  00:01           0     0.00403       1.558
  PMP93043             JUNCTION      0.00     0.00     0  00:00           0           0       0.000 ltr
  PMI92774             JUNCTION      0.00     0.00     0  00:00           0           0       0.000 ltr
  PMP93042             JUNCTION      0.00     0.00     0  00:00           0           0       0.000 ltr
  PMI92787             JUNCTION      0.00     0.00     0  00:00           0           0       0.000 ltr
  PMP93041             JUNCTION      0.00     0.00     0  00:00           0           0       0.000 ltr
  PMP92907             JUNCTION      0.00     0.00     0  00:00           0           0       0.000 ltr
  PMP92902             JUNCTION      0.00     0.00     0  00:00           0           0       0.000 ltr
  PMI92775             JUNCTION      0.00     0.00     0  00:00           0           0       0.000 ltr
  PMI92764             JUNCTION      0.00     0.00     0  00:00           0           0       0.000 ltr
  PMP92827             JUNCTION      0.00     0.00     0  00:00           0           0       0.000 ltr
  PMP92935             JUNCTION      0.00     0.00     0  00:00           0           0       0.000 ltr
  PMP92828             JUNCTION      0.00     0.00     0  00:00           0           0       0.000 ltr
  PMP92901             JUNCTION      0.00    11.84     0  00:03           0     0.00397      -0.506
  PMP92965             JUNCTION      0.00     0.00     0  00:00           0           0       0.000 ltr
  PMI92722             JUNCTION      0.00     0.00     0  00:00           0           0       0.000 ltr
  PMP93107             JUNCTION      0.00     0.00     0  00:00           0           0       0.000 ltr
  PMP92934             JUNCTION      0.00     0.00     0  00:00           0           0       0.000 ltr
  PMI92772             JUNCTION      0.00     0.00     0  00:00           0           0       0.000 ltr
  PMP92964             JUNCTION      0.00     0.00     0  00:00           0           0       0.000 ltr
  PMP93077             JUNCTION      0.00     0.00     0  00:00           0           0       0.000 ltr
  PMP92900             JUNCTION      0.00     0.00     0  00:00           0           0       0.000 ltr
  PMP93040             JUNCTION      0.00     0.00     0  00:00           0           0       0.000 ltr
  PMP93198             JUNCTION      0.00    11.46     0  00:04           0     0.00399      -0.264
  PMP92963             JUNCTION      0.00     0.00     0  00:00           0           0       0.000 ltr
  PMI92747             JUNCTION      0.00     0.00     0  00:00           0           0       0.000 ltr
  PMP93004             JUNCTION      0.00     0.00     0  00:00           0           0       0.000 ltr
  PMP93039             JUNCTION      0.00     8.30     0  00:06           0       0.004       0.669
  PMP93038             JUNCTION      0.00     0.00     0  00:00           0           0       0.000 ltr
  PMP92933             JUNCTION      0.00     0.00     0  00:00           0           0       0.000 ltr
  PMI92735             JUNCTION      0.00     0.00     0  00:00           0           0       0.000 ltr
  PMP92864             JUNCTION      0.00     7.05     0  00:08           0     0.00398       0.500
  PMP92962             JUNCTION      0.00     0.00     0  00:00           0           0       0.000 ltr
  PMI92744             JUNCTION      0.00     0.00     0  00:00           0           0       0.000 ltr
  PMP106155            JUNCTION      0.00     0.00     0  00:00           0           0       0.000 ltr
  PMI92791             JUNCTION      0.00     0.00     0  00:00           0           0       0.000 ltr
  PMP93003             JUNCTION      0.00     0.00     0  00:00           0           0       0.000 ltr
  PMP92932             JUNCTION      0.00     0.00     0  00:00           0           0       0.000 ltr
  PMP93002             JUNCTION      0.00     6.08     0  00:10           0     0.00396       0.514
  PMP92961             JUNCTION      0.00     0.00     0  00:00           0           0       0.000 ltr
  PMP106385            JUNCTION      0.00     0.00     0  00:00           0           0       0.000 ltr
  PMP93197             JUNCTION      0.00     0.00     0  00:00           0           0       0.000 ltr
  PMP92931             JUNCTION      0.00     0.00     0  00:00           0           0       0.000 ltr
  PMP93205             JUNCTION      0.00     5.92     0  00:11           0     0.00394      -0.459
  PMP93000             JUNCTION      0.00     0.00     0  00:00           0           0       0.000 ltr
  PMP106386            JUNCTION      0.00     0.00     0  00:00           0           0       0.000 ltr
  PMCI106387           JUNCTION      0.00     0.00     0  00:00           0           0       0.000 ltr
  PMP93046             JUNCTION      0.00     0.00     0  00:00           0           0       0.000 ltr
  PMI92790             JUNCTION      0.00     0.00     0  00:00           0           0       0.000 ltr
  PMI92763             JUNCTION      0.00     0.00     0  00:00           0           0       0.000 ltr
  PMP93076             JUNCTION      0.00     0.00     0  00:00           0           0       0.000 ltr
  PMI92786             JUNCTION      0.00     0.00     0  00:00           0           0       0.000 ltr
  PMP92970             JUNCTION      0.00     0.00     0  00:00           0           0       0.000 ltr
  PMP92960             JUNCTION      0.00     0.00     0  00:00           0           0       0.000 ltr
  PMP106384            JUNCTION      0.00     5.91     0  00:13           0     0.00395       0.064
  PMP92899             JUNCTION      0.00     0.00     0  00:00           0           0       0.000 ltr
  PMI92749             JUNCTION      0.00     0.00     0  00:00           0           0       0.000 ltr
  PMP93001             JUNCTION      0.00     0.00     0  00:00           0           0       0.000 ltr
  PMP92863             JUNCTION      0.00     0.00     0  00:00           0           0       0.000 ltr
  PMP93037             JUNCTION      0.00     0.00     0  00:00           0           0       0.000 ltr
  PMP93075             JUNCTION      0.00     5.59     0  00:14           0     0.00395       0.295
  PMP93105             JUNCTION      0.00     0.00     0  00:00           0           0       0.000 ltr
  PMP92898             JUNCTION      0.00     0.00     0  00:00           0           0       0.000 ltr
  PMP93104             JUNCTION      0.00     0.00     0  00:00           0           0       0.000 ltr
  PMP92999             JUNCTION      0.00     5.67     0  00:15           0     0.00394      -1.420
  PMI92762             JUNCTION      0.00     0.00     0  00:00           0           0       0.000 ltr
  PMP92929             JUNCTION      0.00     0.00     0  00:00           0           0       0.000 ltr
  PMI92792             JUNCTION      0.00     0.00     0  00:00           0           0       0.000 ltr
  PMP93036             JUNCTION      0.00     0.00     0  00:00           0           0       0.000 ltr
  PMP92959             JUNCTION      0.00     0.00     0  00:00           0           0       0.000 ltr
  PMP93103             JUNCTION      0.00     0.00     0  00:00           0           0       0.000 ltr
  PMP92897             JUNCTION      0.00     0.00     0  00:00           0           0       0.000 ltr
  PMP92896             JUNCTION      0.00     5.46     0  00:16           0       0.004       0.348
  PMI92819             JUNCTION      0.00     0.00     0  00:00           0           0       0.000 ltr
  PMP92888             JUNCTION      0.00     0.00     0  00:00           0           0       0.000 ltr
  PMI92761             JUNCTION      0.00     0.00     0  00:00           0           0       0.000 ltr
  PMI92734             JUNCTION      0.00     0.00     0  00:00           0           0       0.000 ltr
  PMP93035             JUNCTION      0.00     0.00     0  00:00           0           0       0.000 ltr
  PMI92751             JUNCTION      0.00     0.00     0  00:00           0           0       0.000 ltr
  PMP92958             JUNCTION      0.00     0.00     0  00:00           0           0       0.000 ltr
  PMI92785             JUNCTION      0.00     0.00     0  00:00           0           0       0.000 ltr
  PMP93102             JUNCTION      0.00     0.00     0  00:00           0           0       0.000 ltr
  PMI92812             JUNCTION      0.00     0.00     0  00:00           0           0       0.000 ltr
  PMP92996             JUNCTION      0.00     0.00     0  00:00           0           0       0.000 ltr
  PMP93074             JUNCTION      0.00     0.00     0  00:00           0           0       0.000 ltr
  PMP92865             JUNCTION      0.00     0.00     0  00:00           0           0       0.000 ltr
  PMI92771             JUNCTION      0.00     0.00     0  00:00           0           0       0.000 ltr
  PMP92928             JUNCTION      0.00     4.75     0  00:19           0     0.00398       0.645
  PMP92995             JUNCTION      0.00     0.00     0  00:00           0           0       0.000 ltr
  PMP92876             JUNCTION      0.00     0.00     0  00:00           0           0       0.000 ltr
  PMP92957             JUNCTION      0.00     0.00     0  00:00           0           0       0.000 ltr
  PMP93101             JUNCTION      0.00     4.42     0  00:20           0     0.00396      -0.553
  PMI92733             JUNCTION      0.00     0.00     0  00:00           0           0       0.000 ltr
  PMP92994             JUNCTION      0.00     0.00     0  00:00           0           0       0.000 ltr
  PMI92736             JUNCTION      0.00     0.00     0  00:00           0           0       0.000 ltr
  PMP93034             JUNCTION      0.00     0.00     0  00:00           0           0       0.000 ltr
  PMP92867             JUNCTION      0.00     0.00     0  00:00           0           0       0.000 ltr
  PMP93100             JUNCTION      0.00     0.00     0  00:00           0           0       0.000 ltr
  PMP105957            JUNCTION      0.00     0.00     0  00:00           0           0       0.000 ltr
  PMP92938             JUNCTION      0.00     0.00     0  00:00           0           0       0.000 ltr
  PMP93099             JUNCTION      0.00     0.00     0  00:00           0           0       0.000 ltr
  PMI105971            JUNCTION      0.00     0.00     0  00:00           0           0       0.000 ltr
  PMI92784             JUNCTION      0.00     0.00     0  00:00           0           0       0.000 ltr
  PMP93073             JUNCTION      0.00     3.08     0  00:27           0     0.00398       0.832
  PMP105970            JUNCTION      0.00     0.00     0  00:00           0           0       0.000 ltr
  PMP92821             JUNCTION      0.00     0.00     0  00:00           0           0       0.000 ltr
  PMP105960            JUNCTION      0.00     0.00     0  00:00           0           0       0.000 ltr
  PMI92797             JUNCTION      0.00     0.00     0  00:00           0           0       0.000 ltr
  PMP108535            JUNCTION      0.00     0.00     0  00:00           0           0       0.000 ltr
  PMP108536            JUNCTION      0.00     0.00     0  00:00           0           0       0.000 ltr
  PMP92820             JUNCTION      0.00     0.00     0  00:00           0           0       0.000 ltr
  PMI92754             JUNCTION      0.00     0.00     0  00:00           0           0       0.000 ltr
  PMP92956             JUNCTION      0.00     0.00     0  00:00           0           0       0.000 ltr
  PMP93139             JUNCTION      0.00     0.00     0  00:00           0           0       0.000 ltr
  PMP105962            JUNCTION      0.00     0.00     0  00:00           0           0       0.000 ltr
  PMP93228             JUNCTION      0.00     0.00     0  00:00           0           0       0.000 ltr
  PMP92927             JUNCTION      0.00     0.00     0  00:00           0           0       0.000 ltr
  PMP92969             JUNCTION      0.00     0.00     0  00:00           0           0       0.000 ltr
  PMP93108             JUNCTION      0.00     0.00     0  00:00           0           0       0.000 ltr
  PMI105964            JUNCTION      0.00     0.00     0  00:00           0           0       0.000 ltr
  PMP92968             JUNCTION      0.00     0.00     0  00:00           0           0       0.000 ltr
  PMP93033             JUNCTION      0.00     0.00     0  00:00           0           0       0.000 ltr
  PMP92862             JUNCTION      0.00     0.00     0  00:00           0           0       0.000 ltr
  PMP92955             JUNCTION      0.00     0.00     0  00:00           0           0       0.000 ltr
  PMP108534            JUNCTION      0.00     0.00     0  00:00           0           0       0.000 ltr
  PMP93098             JUNCTION      0.00     0.00     0  00:00           0           0       0.000 ltr
  PMP105968            JUNCTION      0.00     0.00     0  00:00           0           0       0.000 ltr
  PMI92756             JUNCTION      0.00     0.00     0  00:00           0           0       0.000 ltr
  PMP92822             JUNCTION      0.00     0.00     0  00:00           0           0       0.000 ltr
  PMP93097             JUNCTION      0.00     0.00     0  00:00           0           0       0.000 ltr
  PMP92926             JUNCTION      0.00     2.81     0  00:30           0     0.00395      -0.045
  PMI92760             JUNCTION      0.00     0.00     0  00:00           0           0       0.000 ltr
  PMP93096             JUNCTION      0.00     0.00     0  00:00           0           0       0.000 ltr
  PMP92895             JUNCTION      0.00     0.00     0  00:00           0           0       0.000 ltr
  PMP106083            JUNCTION      0.00     0.00     0  00:00           0           0       0.000 ltr
  PMP63246             JUNCTION      0.00     0.00     0  00:00           0           0       0.000 ltr
  PMP106082            JUNCTION      0.00     0.00     0  00:00           0           0       0.000 ltr
  PMI92753             JUNCTION      0.00     0.00     0  00:00           0           0       0.000 ltr
  PMP92993             JUNCTION      0.00     0.00     0  00:00           0           0       0.000 ltr
  PMP106065            JUNCTION      0.00     0.00     0  00:00           0           0       0.000 ltr
  PMP106006            JUNCTION      0.00     0.01     0  01:51           0   6.87e-007       0.687 ltr
  PMP106084            JUNCTION      0.00     0.00     0  00:00           0           0       0.000 ltr
  PMI92783             JUNCTION      0.00     0.00     0  00:00           0           0       0.000 ltr
  PMP92861             JUNCTION      0.00     0.00     0  00:00           0           0       0.000 ltr
  PMP108538            JUNCTION      0.00     0.00     0  00:00           0           0       0.000 ltr
  PMP63245             JUNCTION      0.00     0.00     0  00:00           0           0       0.000 ltr
  PMP108537            JUNCTION      0.00     0.00     0  00:00           0           0       0.000 ltr
  PMP106071            JUNCTION      0.00     0.00     0  00:00           0           0       0.000 ltr
  PMI106007            JUNCTION      0.00     0.00     0  00:00           0           0       0.000 ltr
  PMP92860             JUNCTION      0.00     0.00     0  00:00           0           0       0.000 ltr
  PMP106077            JUNCTION      0.00     0.00     0  00:00           0           0       0.000 ltr
  PMP93031             JUNCTION      0.00     0.00     0  00:00           0           0       0.000 ltr
  PMI92782             JUNCTION      0.00     0.00     0  00:00           0           0       0.000 ltr
  PMP92925             JUNCTION      0.00     2.62     0  00:33           0     0.00395      -1.095
  PMP106064            JUNCTION      0.00     0.00     0  00:00           0           0       0.000 ltr
  PMP92924             JUNCTION      0.00     0.00     0  00:00           0           0       0.000 ltr
  PMP106081            JUNCTION      0.00     0.00     0  00:00           0           0       0.000 ltr
  PMP93072             JUNCTION      0.00     0.00     0  00:00           0           0       0.000 ltr
  PMP93071             JUNCTION      0.00     0.00     0  00:00           0           0       0.000 ltr
  PMP93179             JUNCTION      0.00     0.00     0  00:00           0           0       0.000 ltr
  PMP93151             JUNCTION      0.00     0.00     0  00:00           0           0       0.000 ltr
  PMI92781             JUNCTION      0.00     0.00     0  00:00           0           0       0.000 ltr
  PMP92992             JUNCTION      0.00     0.00     0  00:00           0           0       0.000 ltr
  PMP92921             JUNCTION      0.00     0.00     0  00:00           0           0       0.000 ltr
  PMP92954             JUNCTION      0.00     0.03     0  02:00           0   1.01e-005       9.414 ltr
  PMP92894             JUNCTION      0.00     0.00     0  00:00           0           0       0.000 ltr
  PMP93170             JUNCTION      0.00     0.00     0  00:00           0           0       0.000 ltr
  PMP93219             JUNCTION      0.00     0.00     0  00:00           0           0       0.000 ltr
  PMP93030             JUNCTION      0.00     0.00     0  00:00           0           0       0.000 ltr
  PMP92923             JUNCTION      0.00     0.00     0  00:00           0           0       0.000 ltr
  PMP93070             JUNCTION      0.00     0.00     0  00:00           0           0       0.000 ltr
  PMI92732             JUNCTION      0.00     0.00     0  00:00           0           0       0.000 ltr
  PMP93069             JUNCTION      0.00     0.00     0  00:00           0           0       0.000 ltr
  PMP92859             JUNCTION      0.00     0.00     0  00:00           0           0       0.000 ltr
  PMP92893             JUNCTION      0.00     0.00     0  00:00           0           0       0.000 ltr
  PMP106066            JUNCTION      0.00     0.00     0  00:00           0           0       0.000 ltr
  PMP92953             JUNCTION      0.00     0.00     0  00:00           0           0       0.000 ltr
  PMP92892             JUNCTION      0.00     0.00     0  00:00           0           0       0.000 ltr
  PMP93068             JUNCTION      0.00     0.00     0  00:00           0           0       0.000 ltr
  PMP106067            JUNCTION      0.00     0.00     0  00:00           0           0       0.000 ltr
  PMP93095             JUNCTION      0.00     2.71     0  00:37           0     0.00399      -0.646
  PMP106085            JUNCTION      0.00     0.00     0  00:00           0           0       0.000 ltr
  PMP92991             JUNCTION      0.00     0.00     0  00:00           0           0       0.000 ltr
  PMI92796             JUNCTION      0.00     0.00     0  00:00           0           0       0.000 ltr
  PMI60590             JUNCTION      0.00     0.00     0  00:00           0           0       0.000 ltr
  PMP93094             JUNCTION      0.00     0.00     0  00:00           0           0       0.000 ltr
  PMP106068            JUNCTION      0.00     0.00     0  00:00           0           0       0.000 ltr
  PMP93110             JUNCTION      0.00     0.00     0  00:00           0           0       0.000 ltr
  PMP93067             JUNCTION      0.00     0.27     0  02:00           0    0.000192     181.755 ltr
  PMP92937             JUNCTION      0.00     0.00     0  00:00           0           0       0.000 ltr
  PMP92952             JUNCTION      0.00     0.00     0  00:00           0           0       0.000 ltr
  PMP93220             JUNCTION      0.00     0.00     0  00:00           0           0       0.000 ltr
  PMC98457             JUNCTION      0.00     0.00     0  00:00           0           0       0.000 ltr
  PMP93171             JUNCTION      0.00     0.00     0  00:00           0           0       0.000 ltr
  PMP92990             JUNCTION      0.00     0.00     0  00:00           0           0       0.000 ltr
  PMP92857             JUNCTION      0.00     0.00     0  00:00           0           0       0.000 ltr
  PMP92906             JUNCTION      0.00     0.00     0  00:00           0           0       0.000 ltr
  PMI106008            JUNCTION      0.00     0.00     0  00:00           0           0       0.000 ltr
  PMP93028             JUNCTION      0.00     0.00     0  00:00           0           0       0.000 ltr
  PMP93029             JUNCTION      0.00     2.27     0  00:49           0     0.00402      10.946
  PMP93093             JUNCTION      0.00     0.00     0  00:00           0           0       0.000 ltr
  PMP93066             JUNCTION      0.00     0.00     0  00:00           0           0       0.000 ltr
  PMP93092             JUNCTION      0.00     0.00     0  00:00           0           0       0.000 ltr
  PMI92773             JUNCTION      0.00     0.00     0  00:00           0           0       0.000 ltr
  PMP92856             JUNCTION      0.00     0.00     0  00:00           0           0       0.000 ltr
  PMP92930             JUNCTION      0.00     0.00     0  00:00           0           0       0.000 ltr
  PMP106070            JUNCTION      0.00     0.00     0  00:00           0           0       0.000 ltr
  PMP93065             JUNCTION      0.00     0.00     0  00:00           0           0       0.000 ltr
  PMP93027             JUNCTION      0.00     0.00     0  00:00           0           0       0.000 ltr
  PMP92989             JUNCTION      0.00     0.00     0  00:00           0           0       0.000 ltr
  PMP93005             JUNCTION      0.00     0.00     0  00:00           0           0       0.000 ltr
  PMP92988             JUNCTION      0.00     0.00     0  00:00           0           0       0.000 ltr
  PMP93026             JUNCTION      0.00     0.00     0  00:00           0           0       0.000 ltr
  PMP92855             JUNCTION      0.00     0.00     0  00:00           0           0       0.000 ltr
  PMP93172             JUNCTION      0.00     0.00     0  00:00           0           0       0.000 ltr
  PMP92891             JUNCTION      0.00     1.46     0  01:01           0     0.00362       6.591
  PMI92745             JUNCTION      0.00     0.00     0  00:00           0           0       0.000 ltr
  PMP93045             JUNCTION      0.00     0.00     0  00:00           0           0       0.000 ltr
  PMP92854             JUNCTION      0.00     0.00     0  00:00           0           0       0.000 ltr
  PMP93173             JUNCTION      0.00     0.00     0  00:00           0           0       0.000 ltr
  PMI92808             JUNCTION      0.00     0.00     0  00:00           0           0       0.000 ltr
  PMP92853             JUNCTION      0.00     0.00     0  00:00           0           0       0.000 ltr
  PMP93091             JUNCTION      0.00     0.00     0  00:00           0           0       0.000 ltr
  PMP92984             JUNCTION      0.00     0.00     0  00:00           0           0       0.000 ltr
  PMC98455             JUNCTION      0.00     0.00     0  00:00           0           0       0.000 ltr
  PMP93148             JUNCTION      0.00     0.00     0  00:00           0           0       0.000 ltr
  PMP92922             JUNCTION      0.00     0.00     0  00:00           0           0       0.000 ltr
  PMP92983             JUNCTION      0.00     0.00     0  00:00           0           0       0.000 ltr
  PMP106072            JUNCTION      0.00     0.00     0  00:00           0           0       0.000 ltr
  PMP93210             JUNCTION      0.00     0.00     0  00:00           0           0       0.000 ltr
  PMI92795             JUNCTION      0.00     0.00     0  00:00           0           0       0.000 ltr
  PMP93025             JUNCTION      0.00     1.40     0  01:08           0      0.0034       5.981
  PMP93023             JUNCTION      0.00     0.00     0  00:00           0           0       0.000 ltr
  PMP93064             JUNCTION      0.00     0.00     0  00:00           0           0       0.000 ltr
  PMP92951             JUNCTION      0.00     1.30     0  01:20           0     0.00316      87.551
  PMP93024             JUNCTION      0.00     1.22     0  01:16           0     0.00321       1.462
  PMI92780             JUNCTION      0.00     0.00     0  00:00           0           0       0.000 ltr
  PMP93063             JUNCTION      0.00     0.00     0  00:00           0           0       0.000 ltr
  PMP92852             JUNCTION      0.00     0.00     0  00:00           0           0       0.000 ltr
  PMP93090             JUNCTION      0.00     0.00     0  00:00           0           0       0.000 ltr
  PMP92851             JUNCTION      0.00     0.00     0  00:00           0           0       0.000 ltr
  PMP92850             JUNCTION      0.00     0.00     0  00:00           0           0       0.000 ltr
  PMP92889             JUNCTION      0.00     0.00     0  00:00           0           0       0.000 ltr
  PMP92890             JUNCTION      0.00     0.00     0  00:00           0           0       0.000 ltr
  PMP93221             JUNCTION      0.00     0.00     0  00:00           0           0       0.000 ltr
  PMP93022             JUNCTION      0.00     0.00     0  00:00           0           0       0.000 ltr
  PMP93021             JUNCTION      0.00     0.00     0  00:00           0           0       0.000 ltr
  PMP92849             JUNCTION      0.00     0.00     0  00:00           0           0       0.000 ltr
  PMI92759             JUNCTION      0.00     0.00     0  00:00           0           0       0.000 ltr
  PMP92920             JUNCTION      0.00     0.00     0  00:00           0           0       0.000 ltr
  PMP92919             JUNCTION      0.00     0.00     0  00:00           0           0       0.000 ltr
  PMP106073            JUNCTION      0.00     0.00     0  00:00           0           0       0.000 ltr
  PMP92848             JUNCTION      0.00     0.00     0  00:00           0           0       0.000 ltr
  PMP92918             JUNCTION      0.00     0.00     0  00:00           0           0       0.000 ltr
  PMP105972            JUNCTION      0.00     0.00     0  00:00           0           0       0.000 ltr
  PMP93089             JUNCTION      0.00     0.00     0  00:00           0           0       0.000 ltr
  PMP92917             JUNCTION      0.00     0.00     0  00:00           0           0       0.000 ltr
  PMP106074            JUNCTION      0.00     0.00     0  00:00           0           0       0.000 ltr
  PMP106076            JUNCTION      0.00     0.00     0  00:00           0           0       0.000 ltr
  PMP92887             JUNCTION      0.00     0.00     0  00:00           0           0       0.000 ltr
  PMP92879             JUNCTION      0.00     0.00     0  00:00           0           0       0.000 ltr
  PMP106069            JUNCTION      0.00     0.00     0  00:00           0           0       0.000 ltr
  PMP93062             JUNCTION      0.00     0.00     0  00:00           0           0       0.000 ltr
  PMP92886             JUNCTION      0.00     0.00     0  00:00           0           0       0.000 ltr
  PMP93020             JUNCTION      0.00     0.00     0  00:00           0           0       0.000 ltr
  PMI92731             JUNCTION      0.00     0.00     0  00:00           0           0       0.000 ltr
  PMP92847             JUNCTION      0.00     0.00     0  00:00           0           0       0.000 ltr
  PMP92967             JUNCTION      0.00     0.00     0  00:00           0           0       0.000 ltr
  PMP93147             JUNCTION      0.00     0.00     0  00:00           0           0       0.000 ltr
  PMP92885             JUNCTION      0.00     0.00     0  00:00           0           0       0.000 ltr
  PMP106075            JUNCTION      0.00     0.00     0  00:00           0           0       0.000 ltr
  PMI92750             JUNCTION      0.00     0.00     0  00:00           0           0       0.000 ltr
  PMP93088             JUNCTION      0.00     0.00     0  00:00           0           0       0.000 ltr
  PMI92752             JUNCTION      0.00     0.00     0  00:00           0           0       0.000 ltr
  PMP92916             JUNCTION      0.00     0.00     0  00:00           0           0       0.000 ltr
  PMP92884             JUNCTION      0.00     0.00     0  00:00           0           0       0.000 ltr
  PMP93174             JUNCTION      0.00     0.00     0  00:00           0           0       0.000 ltr
  PMP92883             JUNCTION      0.00     0.00     0  00:00           0           0       0.000 ltr
  PMP92844             JUNCTION      0.00     0.00     0  00:00           0           0       0.000 ltr
  PMP93109             JUNCTION      0.00     0.00     0  00:00           0           0       0.000 ltr
  PMP92845             JUNCTION      0.00     0.00     0  00:00           0           0       0.000 ltr
  PMP93195             JUNCTION      0.00     0.00     0  00:00           0           0       0.000 ltr
  PMI92765             JUNCTION      0.00     0.00     0  00:00           0           0       0.000 ltr
  PMI92743             JUNCTION      0.00     0.00     0  00:00           0           0       0.000 ltr
  PMP93019             JUNCTION      0.00     0.00     0  00:00           0           0       0.000 ltr
  PMP93157             JUNCTION      0.00     0.00     0  00:00           0           0       0.000 ltr
  PMP93061             JUNCTION      0.00     0.00     0  00:00           0           0       0.000 ltr
  PMI92811             JUNCTION      0.00     0.00     0  00:00           0           0       0.000 ltr
  PMP93196             JUNCTION      0.00     0.00     0  00:00           0           0       0.000 ltr
  PMP93146             JUNCTION      0.00     0.00     0  00:00           0           0       0.000 ltr
  PMP93160             JUNCTION      0.00     0.00     0  00:00           0           0       0.000 ltr
  PMP93044             JUNCTION      0.00     0.00     0  00:00           0           0       0.000 ltr
  PMP93017             JUNCTION      0.00     0.00     0  00:00           0           0       0.000 ltr
  PMP92905             JUNCTION      0.00     0.00     0  00:00           0           0       0.000 ltr
  PMP93137             JUNCTION      0.00     0.00     0  00:00           0           0       0.000 ltr
  PMP93018             JUNCTION      0.00     0.00     0  00:00           0           0       0.000 ltr
  PMP106087            JUNCTION      0.00     0.00     0  00:00           0           0       0.000 ltr
  PMP92843             JUNCTION      0.00     0.00     0  00:00           0           0       0.000 ltr
  PMP92882             JUNCTION      0.00     0.00     0  00:00           0           0       0.000 ltr
[...]
  AUG-23-2013 00:15:00      0.000     0.000     0.000     0.000
  AUG-23-2013 00:30:00      0.000     0.000     0.000     0.000
  AUG-23-2013 00:45:00      0.000     0.000     0.000     0.000
  AUG-23-2013 01:00:00      0.000     0.000     0.000     0.000
  AUG-23-2013 01:15:00      0.000     0.000     0.000     0.000
  AUG-23-2013 01:30:00      0.000     0.000     0.000     0.000
  AUG-23-2013 01:45:00      0.000     0.000     0.000     0.000
  AUG-23-2013 02:00:00      0.000     0.000     0.000     0.000
  
  
  <<< Link PLB86097 >>>
  ----------------------------------------------------------------
                             Flow  Velocity     Depth  Capacity/
  Date        Time            LPS     m/sec    meters   Setting 
  ----------------------------------------------------------------
  AUG-23-2013 00:15:00      0.000     0.000     0.000     0.000
  AUG-23-2013 00:30:00      0.000     0.000     0.000     0.000
  AUG-23-2013 00:45:00      0.000     0.000     0.000     0.000
  AUG-23-2013 01:00:00      0.000     0.000     0.000     0.000
  AUG-23-2013 01:15:00      0.000     0.000     0.000     0.000
  AUG-23-2013 01:30:00      0.000     0.000     0.000     0.000
  AUG-23-2013 01:45:00      0.000     0.000     0.000     0.000
  AUG-23-2013 02:00:00      0.000     0.000     0.000     0.000
  
  
  <<< Link PLO86109 >>>
  ----------------------------------------------------------------
                             Flow  Velocity     Depth  Capacity/
  Date        Time            LPS     m/sec    meters   Setting 
  ----------------------------------------------------------------
  AUG-23-2013 00:15:00      0.000     0.000     0.000     0.000
  AUG-23-2013 00:30:00      0.000     0.000     0.000     0.000
  AUG-23-2013 00:45:00      0.000     0.000     0.000     0.000
  AUG-23-2013 01:00:00      0.000     0.000     0.000     0.000
  AUG-23-2013 01:15:00      0.000     0.000     0.000     0.000
  AUG-23-2013 01:30:00      0.000     0.000     0.000     0.000
  AUG-23-2013 01:45:00      0.000     0.000     0.000     0.000
  AUG-23-2013 02:00:00      0.000     0.000     0.000     0.000
  
  
  <<< Link PLB86072 >>>
  ----------------------------------------------------------------
                             Flow  Velocity     Depth  Capacity/
  Date        Time            LPS     m/sec    meters   Setting 
  ----------------------------------------------------------------
  AUG-23-2013 00:15:00      0.000     0.000     0.000     0.000
  AUG-23-2013 00:30:00      0.000     0.000     0.000     0.000
  AUG-23-2013 00:45:00      0.000     0.000     0.000     0.000
  AUG-23-2013 01:00:00      0.000     0.000     0.000     0.000
  AUG-23-2013 01:15:00      0.000     0.000     0.000     0.000
  AUG-23-2013 01:30:00      0.000     0.000     0.000     0.000
  AUG-23-2013 01:45:00      0.000     0.000     0.000     0.000
  AUG-23-2013 02:00:00      0.000     0.000     0.000     0.000
  
  
  <<< Link PLT85813 >>>
  ----------------------------------------------------------------
                             Flow  Velocity     Depth  Capacity/
  Date        Time            LPS     m/sec    meters   Setting 
  ----------------------------------------------------------------
  AUG-23-2013 00:15:00      0.000     0.000     0.000     0.000
  AUG-23-2013 00:30:00      0.000     0.000     0.000     0.000
  AUG-23-2013 00:45:00      0.000     0.000     0.000     0.000
  AUG-23-2013 01:00:00      0.000     0.000     0.000     0.000
  AUG-23-2013 01:15:00      0.000     0.000     0.000     0.000
  AUG-23-2013 01:30:00      0.000     0.000     0.000     0.000
  AUG-23-2013 01:45:00      0.000     0.000     0.000     0.000
  AUG-23-2013 02:00:00      0.000     0.000     0.000     0.000
  
  
  <<< Link PLT85844 >>>
  ----------------------------------------------------------------
                             Flow  Velocity     Depth  Capacity/
  Date        Time            LPS     m/sec    meters   Setting 
  ----------------------------------------------------------------
  AUG-23-2013 00:15:00      0.000     0.000     0.000     0.000
  AUG-23-2013 00:30:00      0.000     0.000     0.000     0.000
  AUG-23-2013 00:45:00      0.000     0.000     0.000     0.000
  AUG-23-2013 01:00:00      0.000     0.000     0.000     0.000
  AUG-23-2013 01:15:00      0.000     0.000     0.000     0.000
  AUG-23-2013 01:30:00      0.000     0.000     0.000     0.000
  AUG-23-2013 01:45:00      0.000     0.000     0.000     0.000
  AUG-23-2013 02:00:00      0.000     0.000     0.000     0.000
  
  
  <<< Link PLT85919 >>>
  ----------------------------------------------------------------
                             Flow  Velocity     Depth  Capacity/
  Date        Time            LPS     m/sec    meters   Setting 
  ----------------------------------------------------------------
  AUG-23-2013 00:15:00      0.000     0.000     0.000     0.000
  AUG-23-2013 00:30:00      0.000     0.000     0.000     0.000
  AUG-23-2013 00:45:00      0.000     0.000     0.000     0.000
  AUG-23-2013 01:00:00      0.000     0.000     0.000     0.000
  AUG-23-2013 01:15:00      0.000     0.000     0.000     0.000
  AUG-23-2013 01:30:00      0.000     0.000     0.001     0.000
  AUG-23-2013 01:45:00      0.000     0.000     0.003     0.000
  AUG-23-2013 02:00:00      0.000     0.000     0.005     0.001
  
  
  <<< Link PLT85925 >>>
  ----------------------------------------------------------------
                             Flow  Velocity     Depth  Capacity/
  Date        Time            LPS     m/sec    meters   Setting 
  ----------------------------------------------------------------
  AUG-23-2013 00:15:00      0.000     0.000     0.000     0.000
  AUG-23-2013 00:30:00      0.000     0.000     0.000     0.000
  AUG-23-2013 00:45:00      0.000     0.000     0.000     0.000
  AUG-23-2013 01:00:00      0.000     0.000     0.000     0.000
  AUG-23-2013 01:15:00      0.000     0.000     0.000     0.000
  AUG-23-2013 01:30:00      0.000     0.000     0.000     0.000
  AUG-23-2013 01:45:00      0.000     0.000     0.000     0.000
  AUG-23-2013 02:00:00      0.000     0.000     0.000     0.000
  
  
  <<< Link PLT86032 >>>
  ----------------------------------------------------------------
                             Flow  Velocity     Depth  Capacity/
  Date        Time            LPS     m/sec    meters   Setting 
  ----------------------------------------------------------------
  AUG-23-2013 00:15:00      0.000     0.000     0.000     0.000
  AUG-23-2013 00:30:00      0.000     0.000     0.000     0.000
  AUG-23-2013 00:45:00      0.000     0.000     0.000     0.000
  AUG-23-2013 01:00:00      0.000     0.000     0.000     0.000
  AUG-23-2013 01:15:00      0.000     0.000     0.000     0.000
  AUG-23-2013 01:30:00      0.000     0.000     0.000     0.000
  AUG-23-2013 01:45:00      0.000     0.000     0.000     0.000
  AUG-23-2013 02:00:00      0.000     0.000     0.000     0.000
  
  
  <<< Link PLT85700 >>>
  ----------------------------------------------------------------
                             Flow  Velocity     Depth  Capacity/
  Date        Time            LPS     m/sec    meters   Setting 
  ----------------------------------------------------------------
  AUG-23-2013 00:15:00      0.009     0.000     0.002     0.000
  AUG-23-2013 00:30:00      2.786     0.196     0.048     0.018
  AUG-23-2013 00:45:00      0.971     0.135     0.031     0.009
  AUG-23-2013 01:00:00      0.410     0.101     0.021     0.005
  AUG-23-2013 01:15:00      0.190     0.079     0.015     0.003
  AUG-23-2013 01:30:00      0.085     0.062     0.010     0.002
  AUG-23-2013 01:45:00      0.035     0.048     0.006     0.001
  AUG-23-2013 02:00:00      0.014     0.039     0.003     0.000
  
  
  <<< Link PLB86091 >>>
  ----------------------------------------------------------------
                             Flow  Velocity     Depth  Capacity/
  Date        Time            LPS     m/sec    meters   Setting 
  ----------------------------------------------------------------
  AUG-23-2013 00:15:00      0.000     0.000     0.000     0.000
  AUG-23-2013 00:30:00      0.000     0.000     0.000     0.000
  AUG-23-2013 00:45:00      0.000     0.000     0.000     0.000
  AUG-23-2013 01:00:00      0.000     0.000     0.000     0.000
  AUG-23-2013 01:15:00      0.000     0.000     0.000     0.000
  AUG-23-2013 01:30:00      0.000     0.000     0.000     0.000
  AUG-23-2013 01:45:00      0.000     0.000     0.000     0.000
  AUG-23-2013 02:00:00      0.000     0.000     0.000     0.000
  
  
  <<< Link PLB86087 >>>
  ----------------------------------------------------------------
                             Flow  Velocity     Depth  Capacity/
  Date        Time            LPS     m/sec    meters   Setting 
  ----------------------------------------------------------------
  AUG-23-2013 00:15:00      0.000     0.000     0.000     0.000
  AUG-23-2013 00:30:00      0.000     0.000     0.000     0.000
  AUG-23-2013 00:45:00      0.000     0.000     0.000     0.000
  AUG-23-2013 01:00:00      0.000     0.000     0.000     0.000
  AUG-23-2013 01:15:00      0.000     0.000     0.000     0.000
  AUG-23-2013 01:30:00      0.000     0.000     0.000     0.000
  AUG-23-2013 01:45:00      0.000     0.000     0.000     0.000
  AUG-23-2013 02:00:00      0.000     0.000     0.000     0.000
  
  
  <<< Link PLT100649 >>>
  ----------------------------------------------------------------
                             Flow  Velocity     Depth  Capacity/
  Date        Time            LPS     m/sec    meters   Setting 
  ----------------------------------------------------------------
  AUG-23-2013 00:15:00      0.000     0.000     0.000     0.000
  AUG-23-2013 00:30:00      0.000     0.000     0.000     0.000
  AUG-23-2013 00:45:00      0.000     0.000     0.000     0.000
  AUG-23-2013 01:00:00      0.000     0.000     0.000     0.000
  AUG-23-2013 01:15:00      0.000     0.000     0.000     0.000
  AUG-23-2013 01:30:00      0.000     0.000     0.000     0.000
  AUG-23-2013 01:45:00      0.000     0.000     0.000     0.000
  AUG-23-2013 02:00:00      0.000     0.000     0.000     0.000
  
  
  <<< Link PLT100652 >>>
  ----------------------------------------------------------------
                             Flow  Velocity     Depth  Capacity/
  Date        Time            LPS     m/sec    meters   Setting 
  ----------------------------------------------------------------
  AUG-23-2013 00:15:00      0.000     0.000     0.000     0.000
  AUG-23-2013 00:30:00      0.000     0.000     0.000     0.000
  AUG-23-2013 00:45:00      0.000     0.000     0.000     0.000
  AUG-23-2013 01:00:00      0.000     0.000     0.000     0.000
  AUG-23-2013 01:15:00      0.000     0.000     0.000     0.000
  AUG-23-2013 01:30:00      0.000     0.000     0.000     0.000
  AUG-23-2013 01:45:00      0.000     0.000     0.000     0.000
  AUG-23-2013 02:00:00      0.000     0.000     0.000     0.000
  
  
  <<< Link PLB86077 >>>
  ----------------------------------------------------------------
                             Flow  Velocity     Depth  Capacity/
  Date        Time            LPS     m/sec    meters   Setting 
  ----------------------------------------------------------------
  AUG-23-2013 00:15:00      0.000     0.000     0.000     0.000
  AUG-23-2013 00:30:00      0.000     0.000     0.000     0.000
  AUG-23-2013 00:45:00      0.000     0.000     0.000     0.000
  AUG-23-2013 01:00:00      0.000     0.000     0.000     0.000
  AUG-23-2013 01:15:00      0.000     0.000     0.000     0.000
  AUG-23-2013 01:30:00      0.000     0.000     0.000     0.000
  AUG-23-2013 01:45:00      0.000     0.000     0.000     0.000
  AUG-23-2013 02:00:00      0.000     0.000     0.000     0.000
  
  
  <<< Link PLO86103 >>>
  ----------------------------------------------------------------
                             Flow  Velocity     Depth  Capacity/
  Date        Time            LPS     m/sec    meters   Setting 
  ----------------------------------------------------------------
  AUG-23-2013 00:15:00      0.000     0.000     0.000     0.000
  AUG-23-2013 00:30:00      0.000     0.000     0.000     0.000
  AUG-23-2013 00:45:00      0.000     0.000     0.000     0.000
  AUG-23-2013 01:00:00      0.000     0.000     0.000     0.000
  AUG-23-2013 01:15:00      0.000     0.000     0.000     0.000
  AUG-23-2013 01:30:00      0.000     0.000     0.000     0.000
  AUG-23-2013 01:45:00      0.000     0.000     0.000     0.000
  AUG-23-2013 02:00:00      0.000     0.000     0.000     0.000
  
  
  <<< Link PLO86102 >>>
  ----------------------------------------------------------------
                             Flow  Velocity     Depth  Capacity/
  Date        Time            LPS     m/sec    meters   Setting 
  ----------------------------------------------------------------
  AUG-23-2013 00:15:00      0.000     0.000     0.000     0.000
  AUG-23-2013 00:30:00      0.000     0.000     0.000     0.000
  AUG-23-2013 00:45:00      0.000     0.000     0.000     0.000
  AUG-23-2013 01:00:00      0.000     0.000     0.000     0.000
  AUG-23-2013 01:15:00      0.000     0.000     0.000     0.000
  AUG-23-2013 01:30:00      0.000     0.000     0.000     0.000
  AUG-23-2013 01:45:00      0.000     0.000     0.000     0.000
  AUG-23-2013 02:00:00      0.000     0.000     0.000     0.000
  
  
  <<< Link PLT86042 >>>
  ----------------------------------------------------------------
                             Flow  Velocity     Depth  Capacity/
  Date        Time            LPS     m/sec    meters   Setting 
  ----------------------------------------------------------------
  AUG-23-2013 00:15:00      0.000     0.000     0.000     0.000
  AUG-23-2013 00:30:00      0.000     0.000     0.000     0.000
  AUG-23-2013 00:45:00      0.000     0.000     0.000     0.000
  AUG-23-2013 01:00:00      0.000     0.000     0.000     0.000
  AUG-23-2013 01:15:00      0.000     0.000     0.000     0.000
  AUG-23-2013 01:30:00      0.000     0.000     0.000     0.000
  AUG-23-2013 01:45:00      0.000     0.000     0.000     0.000
  AUG-23-2013 02:00:00      0.000     0.000     0.000     0.000
  
  
  <<< Link PLT86043 >>>
  ----------------------------------------------------------------
                             Flow  Velocity     Depth  Capacity/
  Date        Time            LPS     m/sec    meters   Setting 
  ----------------------------------------------------------------
  AUG-23-2013 00:15:00      0.000     0.000     0.000     0.000
  AUG-23-2013 00:30:00      0.000     0.000     0.000     0.000
  AUG-23-2013 00:45:00      0.000     0.000     0.000     0.000
  AUG-23-2013 01:00:00      0.000     0.000     0.000     0.000
  AUG-23-2013 01:15:00      0.000     0.000     0.000     0.000
  AUG-23-2013 01:30:00      0.000     0.000     0.000     0.000
  AUG-23-2013 01:45:00      0.000     0.000     0.000     0.000
  AUG-23-2013 02:00:00      0.000     0.000     0.000     0.000
  
  
  <<< Link PLT86015 >>>
  ----------------------------------------------------------------
                             Flow  Velocity     Depth  Capacity/
  Date        Time            LPS     m/sec    meters   Setting 
  ----------------------------------------------------------------
  AUG-23-2013 00:15:00      0.000     0.000     0.000     0.000
  AUG-23-2013 00:30:00      0.000     0.000     0.000     0.000
  AUG-23-2013 00:45:00      0.000     0.000     0.000     0.000
  AUG-23-2013 01:00:00      0.000     0.000     0.000     0.000
  AUG-23-2013 01:15:00      0.000     0.000     0.000     0.000
  AUG-23-2013 01:30:00      0.000     0.000     0.000     0.000
  AUG-23-2013 01:45:00      0.000     0.000     0.000     0.000
  AUG-23-2013 02:00:00      0.000     0.000     0.000     0.000
  
  
  <<< Link PLT85848 >>>
  ----------------------------------------------------------------
                             Flow  Velocity     Depth  Capacity/
  Date        Time            LPS     m/sec    meters   Setting 
  ----------------------------------------------------------------
  AUG-23-2013 00:15:00      0.000     0.000     0.000     0.000
  AUG-23-2013 00:30:00      0.000     0.000     0.000     0.000
  AUG-23-2013 00:45:00      0.000     0.000     0.000     0.000
  AUG-23-2013 01:00:00      0.000     0.000     0.000     0.000
  AUG-23-2013 01:15:00      0.000     0.000     0.000     0.000
  AUG-23-2013 01:30:00      0.000     0.000     0.000     0.000
  AUG-23-2013 01:45:00      0.000     0.000     0.000     0.000
  AUG-23-2013 02:00:00      0.000     0.000     0.000     0.000
  
  
  <<< Link PLB86073 >>>
  ----------------------------------------------------------------
                             Flow  Velocity     Depth  Capacity/
  Date        Time            LPS     m/sec    meters   Setting 
  ----------------------------------------------------------------
  AUG-23-2013 00:15:00      0.000     0.000     0.000     0.000
  AUG-23-2013 00:30:00      0.000     0.000     0.000     0.000
  AUG-23-2013 00:45:00      0.000     0.000     0.000     0.000
  AUG-23-2013 01:00:00      0.000     0.000     0.000     0.000
  AUG-23-2013 01:15:00      0.000     0.000     0.000     0.000
  AUG-23-2013 01:30:00      0.000     0.000     0.000     0.000
  AUG-23-2013 01:45:00      0.000     0.000     0.000     0.000
  AUG-23-2013 02:00:00      0.000     0.000     0.000     0.000
  
  
  <<< Link PLT85923 >>>
  ----------------------------------------------------------------
                             Flow  Velocity     Depth  Capacity/
  Date        Time            LPS     m/sec    meters   Setting 
  ----------------------------------------------------------------
  AUG-23-2013 00:15:00      0.001     0.000     0.000     0.000
  AUG-23-2013 00:30:00      0.003     0.000     0.001     0.000
  AUG-23-2013 00:45:00      0.023     0.044     0.003     0.000
  AUG-23-2013 01:00:00      0.430     0.096     0.020     0.003
  AUG-23-2013 01:15:00      1.219     0.096     0.040     0.008
  AUG-23-2013 01:30:00      0.989     0.103     0.034     0.006
  AUG-23-2013 01:45:00      0.633     0.105     0.025     0.004
  AUG-23-2013 02:00:00      0.408     0.096     0.019     0.003
  
  
  <<< Link PLB86068 >>>
  ----------------------------------------------------------------
                             Flow  Velocity     Depth  Capacity/
  Date        Time            LPS     m/sec    meters   Setting 
  ----------------------------------------------------------------
  AUG-23-2013 00:15:00      0.000     0.000     0.000     0.000
  AUG-23-2013 00:30:00      0.000     0.000     0.000     0.000
  AUG-23-2013 00:45:00      0.000     0.000     0.000     0.000
  AUG-23-2013 01:00:00      0.000     0.000     0.000     0.000
  AUG-23-2013 01:15:00      0.000     0.000     0.000     0.000
  AUG-23-2013 01:30:00      0.000     0.000     0.000     0.000
  AUG-23-2013 01:45:00      0.000     0.000     0.000     0.000
  AUG-23-2013 02:00:00      0.000     0.000     0.000     0.000
  
  
  <<< Link PLC94199 >>>
  ----------------------------------------------------------------
                             Flow  Velocity     Depth  Capacity/
  Date        Time            LPS     m/sec    meters   Setting 
  ----------------------------------------------------------------
  AUG-23-2013 00:15:00      0.000     0.000     0.000     0.000
  AUG-23-2013 00:30:00      0.000     0.000     0.000     0.000
  AUG-23-2013 00:45:00      0.000     0.000     0.000     0.000
  AUG-23-2013 01:00:00      0.000     0.000     0.000     0.000
  AUG-23-2013 01:15:00      0.000     0.000     0.000     0.000
  AUG-23-2013 01:30:00      0.000     0.000     0.000     0.000
  AUG-23-2013 01:45:00      0.000     0.000     0.000     0.000
  AUG-23-2013 02:00:00      0.000     0.000     0.000     0.000
  

  Analysis begun on:  Thu Jun 25 14:27:37 2015
  Analysis ended on:  Thu Jun 25 14:27:39 2015
  Total elapsed time: 00:00:02