
  EPA STORM WATER MANAGEMENT MODEL - VERSION 5.1 (Build 5.1.009)
  --------------------------------------------------------------

  
  *********************************************************
  NOTE: The summary statistics displayed in this report are
  based on results found at every computational time step,  
  not just on results from each reporting time step.
  *********************************************************
  
  ****************
  Analysis Options
  ****************
  Flow Units ............... CMS
  Process Models:
    Rainfall/Runoff ........ YES
    RDII ................... NO
    Snowmelt ............... NO
    Groundwater ............ NO
    Flow Routing ........... YES
    Ponding Allowed ........ NO
    Water Quality .......... NO
  Infiltration Method ...... HORTON
  Flow Routing Method ...... DYNWAVE
  Starting Date ............ MAY-03-2014 00:00:00
  Ending Date .............. MAY-03-2014 18:00:00
  Antecedent Dry Days ...... 0.0
  Report Time Step ......... 00:15:00
  Wet Time Step ............ 00:05:00
  Dry Time Step ............ 01:00:00
  Routing Time Step ........ 30.00 sec
  Variable Time Step ....... YES
  Maximum Trials ........... 8
  Number of Threads ........ 1
  Head Tolerance ........... 0.001524 m
  
  
  **************************        Volume         Depth
  Runoff Quantity Continuity     hectare-m            mm
  **************************     ---------       -------
  Total Precipitation ......         9.291        30.644
  Evaporation Loss .........         0.000         0.000
  Infiltration Loss ........         1.890         6.232
  Surface Runoff ...........         7.152        23.588
  Final Storage ............         0.258         0.851
  Continuity Error (%) .....        -0.089
  
  
  **************************        Volume        Volume
  Flow Routing Continuity        hectare-m      10^6 ltr
  **************************     ---------     ---------
  Dry Weather Inflow .......         0.000         0.000
  Wet Weather Inflow .......         7.151        71.515
  Groundwater Inflow .......         0.000         0.000
  RDII Inflow ..............         0.000         0.000
  External Inflow ..........        12.959       129.586
  External Outflow .........        18.238       182.387
  Flooding Loss ............         0.628         6.280
  Evaporation Loss .........         0.000         0.000
  Exfiltration Loss ........         0.000         0.000
  Initial Stored Volume ....         0.000         0.001
  Final Stored Volume ......         1.210        12.100
  Continuity Error (%) .....         0.167
  
  
  *************************
  Highest Continuity Errors
  *************************
  Node N-13 (2.22%)
  Node V-2 (-1.50%)
  Node N-15 (1.26%)
  
  
  ***************************
  Time-Step Critical Elements
  ***************************
  None
  
  
  ********************************
  Highest Flow Instability Indexes
  ********************************
  Link C-10 (28)
  Link C-9 (10)
  Link C-7 (2)
  
  
  *************************
  Routing Time Step Summary
  *************************
  Minimum Time Step           :    29.50 sec
  Average Time Step           :    29.99 sec
  Maximum Time Step           :    30.00 sec
  Percent in Steady State     :     0.00
  Average Iterations per Step :     2.00
  Percent Not Converging      :     0.05
  
  
  ***************************
  Subcatchment Runoff Summary
  ***************************
  
  --------------------------------------------------------------------------------------------------------
                            Total      Total      Total      Total      Total       Total     Peak  Runoff
                           Precip      Runon       Evap      Infil     Runoff      Runoff   Runoff   Coeff
  Subcatchment                 mm         mm         mm         mm         mm    10^6 ltr      CMS
  --------------------------------------------------------------------------------------------------------
  C-2                       26.96       0.00       0.00      13.76      11.77       11.53     2.48   0.437
  C-3                       40.08       0.00       0.00       5.06      34.55       27.71     5.63   0.862
  C-4                       26.96       0.00       0.00       1.02      25.33       30.40     5.66   0.940
  C-5                       40.08       0.00       0.00       2.56      37.59        1.88     0.60   0.938
  
  
  ******************
  Node Depth Summary
  ******************
  
  ---------------------------------------------------------------------------------
                                 Average  Maximum  Maximum  Time of Max    Reported
                                   Depth    Depth      HGL   Occurrence   Max Depth
  Node                 Type       Meters   Meters   Meters  days hr:min      Meters
  ---------------------------------------------------------------------------------
  N-5                  JUNCTION     0.24     0.55  2500.55     0  05:03        0.17
  N-6                  JUNCTION     0.31     1.21  2500.20     0  05:23        0.36
  N-7                  JUNCTION     0.61     1.55  2500.19     0  05:23        0.47
  N-9                  JUNCTION     0.66     1.56  2499.56     0  05:30        0.48
  N-13                 JUNCTION     0.56     1.33  2499.33     0  05:33        0.40
  N-14                 JUNCTION     0.52     1.21  2499.21     0  05:32        0.37
  N-15                 JUNCTION     0.58     1.34  2499.34     0  05:31        0.41
  DES-1                OUTFALL      0.55     0.82  2492.82     0  06:56        0.25
  DES-2                OUTFALL      0.53     0.65  2494.28     0  05:42        0.20
  DES-3                OUTFALL      0.52     0.67  2493.80     0  05:37        0.20
  V-1                  STORAGE      0.83     2.25  2495.25     0  06:54        0.69
  V-2                  STORAGE      1.73     4.00  2498.28     0  05:46        1.22
  V-3                  STORAGE      1.61     4.50  2498.78     0  06:29        1.37
  
  
  *******************
  Node Inflow Summary
  *******************
  
  -------------------------------------------------------------------------------------------------
                                  Maximum  Maximum                  Lateral       Total        Flow
                                  Lateral    Total  Time of Max      Inflow      Inflow     Balance
                                   Inflow   Inflow   Occurrence      Volume      Volume       Error
  Node                 Type           CMS      CMS  days hr:min    10^6 ltr    10^6 ltr     Percent
  -------------------------------------------------------------------------------------------------
  N-5                  JUNCTION    11.226   11.226     0  04:55         190         190       0.729
  N-6                  JUNCTION     2.484   13.355     0  04:59        11.5         200       0.993
  N-7                  JUNCTION     0.000   10.955     0  05:15           0         198       0.778
  N-9                  JUNCTION     0.000   10.736     0  05:23           0         196       0.321
  N-13                 JUNCTION     0.000    3.443     0  05:23           0        64.4       2.273
  N-14                 JUNCTION     0.000    3.917     0  05:25           0        72.2       0.685
  N-15                 JUNCTION     0.000    3.303     0  05:25           0        59.1       1.273
  DES-1                OUTFALL      0.000    2.119     0  06:56           0        68.8       0.000
  DES-2                OUTFALL      0.000    1.350     0  06:27           0        57.4       0.000
  DES-3                OUTFALL      0.000    1.399     0  05:37           0        56.2       0.000
  V-1                  STORAGE      0.000    3.882     0  05:34           0        71.7       0.349
  V-2                  STORAGE      0.000    3.407     0  05:40           0        62.9      -1.482
  V-3                  STORAGE      0.000    3.276     0  05:32           0        58.3       0.749
  
  
  **********************
  Node Surcharge Summary
  **********************
  
  Surcharging occurs when water rises above the top of the highest conduit.
  ---------------------------------------------------------------------
                                               Max. Height   Min. Depth
                                   Hours       Above Crown    Below Rim
  Node                 Type      Surcharged         Meters       Meters
  ---------------------------------------------------------------------
  V-2                  STORAGE         1.99          0.000        0.000
  V-3                  STORAGE         0.57          0.000        0.000
  
  
  *********************
  Node Flooding Summary
  *********************
  
  Flooding refers to all water that overflows a node, whether it ponds or not.
  --------------------------------------------------------------------------
                                                             Total   Maximum
                                 Maximum   Time of Max       Flood    Ponded
                        Hours       Rate    Occurrence      Volume     Depth
  Node                 Flooded       CMS   days hr:min    10^6 ltr    Meters
  --------------------------------------------------------------------------
  V-2                     1.98     1.884      0  05:46       5.552     0.000
  V-3                     0.57     0.743      0  06:29       0.727     0.000
  
  
  **********************
  Storage Volume Summary
  **********************
  
  --------------------------------------------------------------------------------------------------
                         Average     Avg  Evap Exfil       Maximum     Max    Time of Max    Maximum
                          Volume    Pcnt  Pcnt  Pcnt        Volume    Pcnt     Occurrence    Outflow
  Storage Unit           1000 m3    Full  Loss  Loss       1000 m3    Full    days hr:min        CMS
  --------------------------------------------------------------------------------------------------
  V-1                      4.546      17     0     0        12.389      45       0  06:54      2.119
  V-2                      3.120      43     0     0         7.200     100       0  05:46      1.350
  V-3                      3.540      36     0     0         9.900     100       0  06:29      1.399
  
  
  ***********************
  Outfall Loading Summary
  ***********************
  
  -----------------------------------------------------------
                         Flow       Avg       Max       Total
                         Freq      Flow      Flow      Volume
  Outfall Node           Pcnt       CMS       CMS    10^6 ltr
  -----------------------------------------------------------
  DES-1                 95.60     1.110     2.119      68.765
  DES-2                 95.79     0.925     1.350      57.447
  DES-3                 95.84     0.904     1.399      56.173
  -----------------------------------------------------------
  System                95.74     2.939     4.847     182.386
  
  
  ********************
  Link Flow Summary
  ********************
  
  -----------------------------------------------------------------------------
                                 Maximum  Time of Max   Maximum    Max/    Max/
                                  |Flow|   Occurrence   |Veloc|    Full    Full
  Link                 Type          CMS  days hr:min     m/sec    Flow   Depth
  -----------------------------------------------------------------------------
  C-1                  CONDUIT    11.023     0  05:03      1.29    0.04    0.20
  C-2                  CONDUIT    10.955     0  05:15      0.71    0.04    0.32
  C-5                  CONDUIT     3.882     0  05:34      2.74    0.98    0.75
  C-6                  CONDUIT     3.407     0  05:40      2.33    1.07    0.92
  C-7                  CONDUIT     3.276     0  05:32      2.27    1.13    0.83
  C-8                  CONDUIT     2.119     0  06:56      3.38    1.57    0.96
  C-9                  CONDUIT     1.350     0  06:27      4.11    1.84    1.00
  C-10                 CONDUIT     1.399     0  05:37      3.65    1.65    1.00
  C-11                 CONDUIT    10.736     0  05:23      2.33    0.91    0.78
  R-4                  ORIFICE     3.917     0  05:25                      0.78
  R-5                  ORIFICE     3.443     0  05:23                      0.78
  R-6                  ORIFICE     3.303     0  05:25                      0.78
  
  
  ***************************
  Flow Classification Summary
  ***************************
  
  -------------------------------------------------------------------------------------
                      Adjusted    ---------- Fraction of Time in Flow Class ---------- 
                       /Actual         Up    Down  Sub   Sup   Up    Down  Norm  Inlet 
  Conduit               Length    Dry  Dry   Dry   Crit  Crit  Crit  Crit  Ltd   Ctrl  
  -------------------------------------------------------------------------------------
  C-1                     1.00   0.00  0.00  0.00  1.00  0.00  0.00  0.00  0.36  0.00
  C-2                     1.00   0.00  0.00  0.00  1.00  0.00  0.00  0.00  0.59  0.00
  C-5                     1.00   0.02  0.00  0.00  0.00  0.00  0.00  0.98  0.00  0.00
  C-6                     1.00   0.02  0.00  0.00  0.29  0.00  0.00  0.68  0.26  0.00
  C-7                     1.00   0.02  0.00  0.00  0.20  0.00  0.00  0.77  0.08  0.00
  C-8                     1.00   0.04  0.00  0.00  0.39  0.57  0.00  0.00  0.01  0.00
  C-9                     1.00   0.03  0.00  0.00  0.61  0.36  0.00  0.00  0.00  0.00
  C-10                    1.00   0.03  0.00  0.00  0.52  0.45  0.00  0.00  0.00  0.00
  C-11                    1.00   0.01  0.00  0.00  0.99  0.00  0.00  0.00  0.83  0.00
  
  
  *************************
  Conduit Surcharge Summary
  *************************
  
  ----------------------------------------------------------------------------
                                                           Hours        Hours 
                         --------- Hours Full --------   Above Full   Capacity
  Conduit                Both Ends  Upstream  Dnstream   Normal Flow   Limited
  ----------------------------------------------------------------------------
  C-6                         0.01      0.01      2.14      0.45         0.01
  C-7                         0.01      0.01      0.53      0.76         0.01
  C-8                         0.01      5.33      0.01      5.94         0.01
  C-9                         1.90     10.14      1.90     10.82         1.90
  C-10                        2.87      8.71      2.87      9.13         2.87
  
  
  ********************
  Subcatchment Results
  ********************
  
  <<< Subcatchment C-2 >>>
  ---------------------------------------------------
  Date        Time        Precip.    Losses    Runoff
                            mm/hr     mm/hr       CMS
  ---------------------------------------------------
  MAY-03-2014 00:15:00      0.000     0.000    0.0000
  MAY-03-2014 00:30:00      0.000     0.000    0.0000
  MAY-03-2014 00:45:00      0.000     0.000    0.0000
  MAY-03-2014 01:00:00      0.000     0.000    0.0000
  MAY-03-2014 01:15:00      0.000     0.000    0.0000
  MAY-03-2014 01:30:00      0.000     0.000    0.0000
  MAY-03-2014 01:45:00      0.000     0.000    0.0000
  MAY-03-2014 02:00:00      0.000     0.000    0.0000
  MAY-03-2014 02:15:00      0.000     0.000    0.0000
  MAY-03-2014 02:30:00      0.000     0.000    0.0000
  MAY-03-2014 02:45:00      0.000     0.000    0.0000
  MAY-03-2014 03:00:00      0.000     0.000    0.0000
  MAY-03-2014 03:15:00      0.000     0.000    0.0000
  MAY-03-2014 03:30:00      0.000     0.000    0.0000
  MAY-03-2014 03:45:00      0.000     0.000    0.0000
  MAY-03-2014 04:00:00      0.000     0.000    0.0000
  MAY-03-2014 04:15:00      9.900     5.236    0.0397
  MAY-03-2014 04:30:00     25.900     3.479    0.4161
  MAY-03-2014 04:45:00     43.000     2.413    1.4057
  MAY-03-2014 05:00:00     24.000     1.767    2.3479
  MAY-03-2014 05:15:00      4.800     1.374    1.7624
  MAY-03-2014 05:30:00      0.000     1.137    1.0978
  MAY-03-2014 05:45:00      0.000     0.992    0.7515
  MAY-03-2014 06:00:00      0.000     0.905    0.5838
  MAY-03-2014 06:15:00      0.000     0.852    0.4840
  MAY-03-2014 06:30:00      0.000     0.820    0.4157
  MAY-03-2014 06:45:00      0.000     0.800    0.3647
  MAY-03-2014 07:00:00      0.000     0.788    0.3240
  MAY-03-2014 07:15:00      0.000     0.781    0.2902
  MAY-03-2014 07:30:00      0.000     0.777    0.2612
  MAY-03-2014 07:45:00      0.000     0.774    0.2359
  MAY-03-2014 08:00:00      0.000     0.772    0.2136
  MAY-03-2014 08:15:00      0.000     0.771    0.1935
  MAY-03-2014 08:30:00      0.000     0.771    0.1754
  MAY-03-2014 08:45:00      0.000     0.771    0.1589
  MAY-03-2014 09:00:00      0.000     0.770    0.1439
  MAY-03-2014 09:15:00      0.000     0.770    0.1302
  MAY-03-2014 09:30:00      0.000     0.770    0.1176
  MAY-03-2014 09:45:00      0.000     0.770    0.1060
  MAY-03-2014 10:00:00      0.000     0.770    0.0953
  MAY-03-2014 10:15:00      0.000     0.770    0.0854
  MAY-03-2014 10:30:00      0.000     0.770    0.0763
  MAY-03-2014 10:45:00      0.000     0.770    0.0679
  MAY-03-2014 11:00:00      0.000     0.770    0.0601
  MAY-03-2014 11:15:00      0.000     0.770    0.0530
  MAY-03-2014 11:30:00      0.000     0.770    0.0463
  MAY-03-2014 11:45:00      0.000     0.770    0.0402
  MAY-03-2014 12:00:00      0.000     0.770    0.0346
  MAY-03-2014 12:15:00      0.000     0.770    0.0295
  MAY-03-2014 12:30:00      0.000     0.770    0.0248
  MAY-03-2014 12:45:00      0.000     0.770    0.0205
  MAY-03-2014 13:00:00      0.000     0.770    0.0167
  MAY-03-2014 13:15:00      0.000     0.770    0.0132
  MAY-03-2014 13:30:00      0.000     0.770    0.0102
  MAY-03-2014 13:45:00      0.000     0.770    0.0075
  MAY-03-2014 14:00:00      0.000     0.770    0.0000
  MAY-03-2014 14:15:00      0.000     0.770    0.0000
  MAY-03-2014 14:30:00      0.000     0.770    0.0000
  MAY-03-2014 14:45:00      0.000     0.770    0.0000
  MAY-03-2014 15:00:00      0.000     0.770    0.0000
  MAY-03-2014 15:15:00      0.000     0.770    0.0000
  MAY-03-2014 15:30:00      0.000     0.770    0.0000
  MAY-03-2014 15:45:00      0.000     0.770    0.0000
  MAY-03-2014 16:00:00      0.000     0.770    0.0000
  MAY-03-2014 16:15:00      0.000     0.770    0.0000
  MAY-03-2014 16:30:00      0.000     0.770    0.0000
  MAY-03-2014 16:45:00      0.000     0.770    0.0000
  MAY-03-2014 17:00:00      0.000     0.770    0.0000
  MAY-03-2014 17:15:00      0.000     0.770    0.0000
  MAY-03-2014 17:30:00      0.000     0.770    0.0000
  MAY-03-2014 17:45:00      0.000     0.770    0.0000
  MAY-03-2014 18:00:00      0.000     0.770    0.0000
  
  
  <<< Subcatchment C-3 >>>
  ---------------------------------------------------
  Date        Time        Precip.    Losses    Runoff
                            mm/hr     mm/hr       CMS
  ---------------------------------------------------
  MAY-03-2014 00:15:00      0.000     0.000    0.0000
  MAY-03-2014 00:30:00      0.000     0.000    0.0000
  MAY-03-2014 00:45:00      0.000     0.000    0.0000
  MAY-03-2014 01:00:00      0.000     0.000    0.0000
  MAY-03-2014 01:15:00      0.000     0.000    0.0000
  MAY-03-2014 01:30:00      0.000     0.000    0.0000
  MAY-03-2014 01:45:00      0.000     0.000    0.0000
  MAY-03-2014 02:00:00      0.000     0.000    0.0000
  MAY-03-2014 02:15:00      0.000     0.000    0.0000
  MAY-03-2014 02:30:00      0.000     0.000    0.0000
  MAY-03-2014 02:45:00      0.000     0.000    0.0000
  MAY-03-2014 03:00:00      0.000     0.000    0.0000
  MAY-03-2014 03:15:00      0.000     0.000    0.0000
  MAY-03-2014 03:30:00      0.000     0.000    0.0000
  MAY-03-2014 03:45:00     15.500     1.801    0.0539
  MAY-03-2014 04:00:00     43.500     1.201    0.6505
  MAY-03-2014 04:15:00     53.800     0.836    2.9236
  MAY-03-2014 04:30:00     40.300     0.615    5.2425
  MAY-03-2014 04:45:00      6.900     0.482    5.0946
  MAY-03-2014 05:00:00      2.300     0.400    3.5440
  MAY-03-2014 05:15:00      0.000     0.351    2.5146
  MAY-03-2014 05:30:00      0.000     0.321    1.8447
  MAY-03-2014 05:45:00      0.000     0.303    1.4059
  MAY-03-2014 06:00:00      0.000     0.292    1.1031
  MAY-03-2014 06:15:00      0.000     0.285    0.8855
  MAY-03-2014 06:30:00      0.000     0.281    0.7239
  MAY-03-2014 06:45:00      0.000     0.279    0.6006
  MAY-03-2014 07:00:00      0.000     0.277    0.5044
  MAY-03-2014 07:15:00      0.000     0.276    0.4279
  MAY-03-2014 07:30:00      0.000     0.276    0.3662
  MAY-03-2014 07:45:00      0.000     0.276    0.3157
  MAY-03-2014 08:00:00      0.000     0.275    0.2738
  MAY-03-2014 08:15:00      0.000     0.275    0.2387
  MAY-03-2014 08:30:00      0.000     0.275    0.2091
  MAY-03-2014 08:45:00      0.000     0.275    0.1838
  MAY-03-2014 09:00:00      0.000     0.275    0.1622
  MAY-03-2014 09:15:00      0.000     0.275    0.1435
  MAY-03-2014 09:30:00      0.000     0.275    0.1272
  MAY-03-2014 09:45:00      0.000     0.275    0.1130
  MAY-03-2014 10:00:00      0.000     0.275    0.1006
  MAY-03-2014 10:15:00      0.000     0.275    0.0897
  MAY-03-2014 10:30:00      0.000     0.275    0.0801
  MAY-03-2014 10:45:00      0.000     0.275    0.0715
  MAY-03-2014 11:00:00      0.000     0.275    0.0640
  MAY-03-2014 11:15:00      0.000     0.275    0.0573
  MAY-03-2014 11:30:00      0.000     0.275    0.0514
  MAY-03-2014 11:45:00      0.000     0.275    0.0461
  MAY-03-2014 12:00:00      0.000     0.275    0.0414
  MAY-03-2014 12:15:00      0.000     0.275    0.0373
  MAY-03-2014 12:30:00      0.000     0.275    0.0338
  MAY-03-2014 12:45:00      0.000     0.275    0.0307
  MAY-03-2014 13:00:00      0.000     0.275    0.0281
  MAY-03-2014 13:15:00      0.000     0.275    0.0261
  MAY-03-2014 13:30:00      0.000     0.275    0.0245
  MAY-03-2014 13:45:00      0.000     0.275    0.0230
  MAY-03-2014 14:00:00      0.000     0.275    0.0216
  MAY-03-2014 14:15:00      0.000     0.275    0.0204
  MAY-03-2014 14:30:00      0.000     0.275    0.0193
  MAY-03-2014 14:45:00      0.000     0.275    0.0182
  MAY-03-2014 15:00:00      0.000     0.275    0.0172
  MAY-03-2014 15:15:00      0.000     0.275    0.0163
  MAY-03-2014 15:30:00      0.000     0.275    0.0155
  MAY-03-2014 15:45:00      0.000     0.275    0.0147
  MAY-03-2014 16:00:00      0.000     0.275    0.0140
  MAY-03-2014 16:15:00      0.000     0.275    0.0133
  MAY-03-2014 16:30:00      0.000     0.275    0.0127
  MAY-03-2014 16:45:00      0.000     0.275    0.0121
  MAY-03-2014 17:00:00      0.000     0.275    0.0115
  MAY-03-2014 17:15:00      0.000     0.275    0.0110
  MAY-03-2014 17:30:00      0.000     0.275    0.0105
  MAY-03-2014 17:45:00      0.000     0.275    0.0101
  MAY-03-2014 18:00:00      0.000     0.275    0.0096
  
  
  <<< Subcatchment C-4 >>>
  ---------------------------------------------------
  Date        Time        Precip.    Losses    Runoff
                            mm/hr     mm/hr       CMS
  ---------------------------------------------------
  MAY-03-2014 00:15:00      0.000     0.000    0.0000
  MAY-03-2014 00:30:00      0.000     0.000    0.0000
  MAY-03-2014 00:45:00      0.000     0.000    0.0000
  MAY-03-2014 01:00:00      0.000     0.000    0.0000
  MAY-03-2014 01:15:00      0.000     0.000    0.0000
  MAY-03-2014 01:30:00      0.000     0.000    0.0000
  MAY-03-2014 01:45:00      0.000     0.000    0.0000
  MAY-03-2014 02:00:00      0.000     0.000    0.0000
  MAY-03-2014 02:15:00      0.000     0.000    0.0000
  MAY-03-2014 02:30:00      0.000     0.000    0.0000
  MAY-03-2014 02:45:00      0.000     0.000    0.0000
  MAY-03-2014 03:00:00      0.000     0.000    0.0000
  MAY-03-2014 03:15:00      0.000     0.000    0.0000
  MAY-03-2014 03:30:00      0.000     0.000    0.0000
  MAY-03-2014 03:45:00      0.000     0.000    0.0000
  MAY-03-2014 04:00:00      0.000     0.000    0.0000
  MAY-03-2014 04:15:00      9.900     0.680    0.0429
  MAY-03-2014 04:30:00     25.900     0.452    0.5558
  MAY-03-2014 04:45:00     43.000     0.313    2.4692
  MAY-03-2014 05:00:00     24.000     0.229    5.3506
  MAY-03-2014 05:15:00      4.800     0.179    5.2627
  MAY-03-2014 05:30:00      0.000     0.148    3.9353
  MAY-03-2014 05:45:00      0.000     0.129    2.8528
  MAY-03-2014 06:00:00      0.000     0.118    2.1441
  MAY-03-2014 06:15:00      0.000     0.111    1.6581
  MAY-03-2014 06:30:00      0.000     0.106    1.3122
  MAY-03-2014 06:45:00      0.000     0.104    1.0586
  MAY-03-2014 07:00:00      0.000     0.102    0.8677
  MAY-03-2014 07:15:00      0.000     0.101    0.7210
  MAY-03-2014 07:30:00      0.000     0.101    0.6062
  MAY-03-2014 07:45:00      0.000     0.101    0.5149
  MAY-03-2014 08:00:00      0.000     0.100    0.4412
  MAY-03-2014 08:15:00      0.000     0.100    0.3811
  MAY-03-2014 08:30:00      0.000     0.100    0.3315
  MAY-03-2014 08:45:00      0.000     0.100    0.2902
  MAY-03-2014 09:00:00      0.000     0.100    0.2555
  MAY-03-2014 09:15:00      0.000     0.100    0.2262
  MAY-03-2014 09:30:00      0.000     0.100    0.2013
  MAY-03-2014 09:45:00      0.000     0.100    0.1801
  MAY-03-2014 10:00:00      0.000     0.100    0.1619
  MAY-03-2014 10:15:00      0.000     0.100    0.1465
  MAY-03-2014 10:30:00      0.000     0.000    0.1334
  MAY-03-2014 10:45:00      0.000     0.000    0.1219
  MAY-03-2014 11:00:00      0.000     0.000    0.1118
  MAY-03-2014 11:15:00      0.000     0.000    0.1028
  MAY-03-2014 11:30:00      0.000     0.000    0.0948
  MAY-03-2014 11:45:00      0.000     0.000    0.0876
  MAY-03-2014 12:00:00      0.000     0.000    0.0812
  MAY-03-2014 12:15:00      0.000     0.000    0.0754
  MAY-03-2014 12:30:00      0.000     0.000    0.0701
  MAY-03-2014 12:45:00      0.000     0.000    0.0654
  MAY-03-2014 13:00:00      0.000     0.000    0.0611
  MAY-03-2014 13:15:00      0.000     0.000    0.0572
  MAY-03-2014 13:30:00      0.000     0.000    0.0536
  MAY-03-2014 13:45:00      0.000     0.000    0.0504
  MAY-03-2014 14:00:00      0.000     0.000    0.0474
  MAY-03-2014 14:15:00      0.000     0.000    0.0446
  MAY-03-2014 14:30:00      0.000     0.000    0.0421
  MAY-03-2014 14:45:00      0.000     0.000    0.0397
  MAY-03-2014 15:00:00      0.000     0.000    0.0376
  MAY-03-2014 15:15:00      0.000     0.000    0.0356
  MAY-03-2014 15:30:00      0.000     0.000    0.0337
  MAY-03-2014 15:45:00      0.000     0.000    0.0320
  MAY-03-2014 16:00:00      0.000     0.000    0.0304
  MAY-03-2014 16:15:00      0.000     0.000    0.0289
  MAY-03-2014 16:30:00      0.000     0.000    0.0275
  MAY-03-2014 16:45:00      0.000     0.000    0.0262
  MAY-03-2014 17:00:00      0.000     0.000    0.0250
  MAY-03-2014 17:15:00      0.000     0.000    0.0239
  MAY-03-2014 17:30:00      0.000     0.000    0.0228
  MAY-03-2014 17:45:00      0.000     0.000    0.0218
  MAY-03-2014 18:00:00      0.000     0.000    0.0209
  
  
  <<< Subcatchment C-5 >>>
  ---------------------------------------------------
  Date        Time        Precip.    Losses    Runoff
                            mm/hr     mm/hr       CMS
  ---------------------------------------------------
  MAY-03-2014 00:15:00      0.000     0.000    0.0000
  MAY-03-2014 00:30:00      0.000     0.000    0.0000
  MAY-03-2014 00:45:00      0.000     0.000    0.0000
  MAY-03-2014 01:00:00      0.000     0.000    0.0000
  MAY-03-2014 01:15:00      0.000     0.000    0.0000
  MAY-03-2014 01:30:00      0.000     0.000    0.0000
  MAY-03-2014 01:45:00      0.000     0.000    0.0000
  MAY-03-2014 02:00:00      0.000     0.000    0.0000
  MAY-03-2014 02:15:00      0.000     0.000    0.0000
  MAY-03-2014 02:30:00      0.000     0.000    0.0000
  MAY-03-2014 02:45:00      0.000     0.000    0.0000
  MAY-03-2014 03:00:00      0.000     0.000    0.0000
  MAY-03-2014 03:15:00      0.000     0.000    0.0000
  MAY-03-2014 03:30:00      0.000     0.000    0.0000
  MAY-03-2014 03:45:00     15.500     1.194    0.0407
  MAY-03-2014 04:00:00     43.500     0.676    0.1782
  MAY-03-2014 04:15:00     53.800     0.486    0.4748
  MAY-03-2014 04:30:00     40.300     0.416    0.5674
  MAY-03-2014 04:45:00      6.900     0.390    0.3726
  MAY-03-2014 05:00:00      2.300     0.381    0.1685
  MAY-03-2014 05:15:00      0.000     0.377    0.0931
  MAY-03-2014 05:30:00      0.000     0.376    0.0556
  MAY-03-2014 05:45:00      0.000     0.375    0.0359
  MAY-03-2014 06:00:00      0.000     0.375    0.0243
  MAY-03-2014 06:15:00      0.000     0.375    0.0170
  MAY-03-2014 06:30:00      0.000     0.375    0.0121
  MAY-03-2014 06:45:00      0.000     0.375    0.0087
  MAY-03-2014 07:00:00      0.000     0.375    0.0063
  MAY-03-2014 07:15:00      0.000     0.375    0.0045
  MAY-03-2014 07:30:00      0.000     0.375    0.0032
  MAY-03-2014 07:45:00      0.000     0.375    0.0022
  MAY-03-2014 08:00:00      0.000     0.375    0.0014
  MAY-03-2014 08:15:00      0.000     0.375    0.0009
  MAY-03-2014 08:30:00      0.000     0.375    0.0005
  MAY-03-2014 08:45:00      0.000     0.375    0.0000
  MAY-03-2014 09:00:00      0.000     0.375    0.0000
  MAY-03-2014 09:15:00      0.000     0.000    0.0000
  MAY-03-2014 09:30:00      0.000     0.000    0.0000
  MAY-03-2014 09:45:00      0.000     0.000    0.0000
  MAY-03-2014 10:00:00      0.000     0.000    0.0000
  MAY-03-2014 10:15:00      0.000     0.000    0.0000
  MAY-03-2014 10:30:00      0.000     0.000    0.0000
  MAY-03-2014 10:45:00      0.000     0.000    0.0000
  MAY-03-2014 11:00:00      0.000     0.000    0.0000
  MAY-03-2014 11:15:00      0.000     0.000    0.0000
  MAY-03-2014 11:30:00      0.000     0.000    0.0000
  MAY-03-2014 11:45:00      0.000     0.000    0.0000
  MAY-03-2014 12:00:00      0.000     0.000    0.0000
  MAY-03-2014 12:15:00      0.000     0.000    0.0000
  MAY-03-2014 12:30:00      0.000     0.000    0.0000
  MAY-03-2014 12:45:00      0.000     0.000    0.0000
  MAY-03-2014 13:00:00      0.000     0.000    0.0000
  MAY-03-2014 13:15:00      0.000     0.000    0.0000
  MAY-03-2014 13:30:00      0.000     0.000    0.0000
  MAY-03-2014 13:45:00      0.000     0.000    0.0000
  MAY-03-2014 14:00:00      0.000     0.000    0.0000
  MAY-03-2014 14:15:00      0.000     0.000    0.0000
  MAY-03-2014 14:30:00      0.000     0.000    0.0000
  MAY-03-2014 14:45:00      0.000     0.000    0.0000
  MAY-03-2014 15:00:00      0.000     0.000    0.0000
  MAY-03-2014 15:15:00      0.000     0.000    0.0000
  MAY-03-2014 15:30:00      0.000     0.000    0.0000
  MAY-03-2014 15:45:00      0.000     0.000    0.0000
  MAY-03-2014 16:00:00      0.000     0.000    0.0000
  MAY-03-2014 16:15:00      0.000     0.000    0.0000
  MAY-03-2014 16:30:00      0.000     0.000    0.0000
  MAY-03-2014 16:45:00      0.000     0.000    0.0000
  MAY-03-2014 17:00:00      0.000     0.000    0.0000
  MAY-03-2014 17:15:00      0.000     0.000    0.0000
  MAY-03-2014 17:30:00      0.000     0.000    0.0000
  MAY-03-2014 17:45:00      0.000     0.000    0.0000
  MAY-03-2014 18:00:00      0.000     0.000    0.0000
  
  
  ************
  Node Results
  ************
  
  <<< Node N-5 >>>
  ----------------------------------------------------------------
                           Inflow  Flooding     Depth      Head
  Date        Time            CMS       CMS    meters    meters
  ----------------------------------------------------------------
  MAY-03-2014 00:15:00      2.000     0.000     0.206  2500.206
  MAY-03-2014 00:30:00      2.000     0.000     0.240  2500.240
  MAY-03-2014 00:45:00      2.000     0.000     0.216  2500.216
  MAY-03-2014 01:00:00      2.000     0.000     0.204  2500.204
  MAY-03-2014 01:15:00      2.000     0.000     0.201  2500.201
  MAY-03-2014 01:30:00      2.000     0.000     0.202  2500.202
  MAY-03-2014 01:45:00      2.000     0.000     0.202  2500.202
  MAY-03-2014 02:00:00      2.000     0.000     0.202  2500.202
  MAY-03-2014 02:15:00      2.000     0.000     0.202  2500.202
  MAY-03-2014 02:30:00      2.000     0.000     0.202  2500.202
  MAY-03-2014 02:45:00      2.000     0.000     0.202  2500.202
  MAY-03-2014 03:00:00      2.000     0.000     0.202  2500.202
  MAY-03-2014 03:15:00      2.000     0.000     0.202  2500.202
  MAY-03-2014 03:30:00      2.000     0.000     0.202  2500.202
  MAY-03-2014 03:45:00      2.094     0.000     0.204  2500.204
  MAY-03-2014 04:00:00      2.827     0.000     0.231  2500.231
  MAY-03-2014 04:15:00      5.438     0.000     0.340  2500.340
  MAY-03-2014 04:30:00      8.363     0.000     0.459  2500.458
  MAY-03-2014 04:45:00      9.935     0.000     0.503  2500.503
  MAY-03-2014 05:00:00     11.064     0.000     0.547  2500.547
  MAY-03-2014 05:15:00      9.872     0.000     0.526  2500.526
  MAY-03-2014 05:30:00      7.838     0.000     0.467  2500.467
  MAY-03-2014 05:45:00      6.296     0.000     0.410  2500.410
  MAY-03-2014 06:00:00      5.272     0.000     0.367  2500.367
  MAY-03-2014 06:15:00      4.561     0.000     0.335  2500.335
  MAY-03-2014 06:30:00      4.049     0.000     0.310  2500.310
  MAY-03-2014 06:45:00      3.668     0.000     0.291  2500.291
  MAY-03-2014 07:00:00      3.379     0.000     0.276  2500.276
  MAY-03-2014 07:15:00      3.154     0.000     0.264  2500.264
  MAY-03-2014 07:30:00      2.976     0.000     0.255  2500.255
  MAY-03-2014 07:45:00      2.833     0.000     0.247  2500.247
  MAY-03-2014 08:00:00      2.717     0.000     0.240  2500.240
  MAY-03-2014 08:15:00      2.621     0.000     0.235  2500.235
  MAY-03-2014 08:30:00      2.541     0.000     0.230  2500.230
  MAY-03-2014 08:45:00      2.474     0.000     0.226  2500.227
  MAY-03-2014 09:00:00      2.418     0.000     0.223  2500.223
  MAY-03-2014 09:15:00      2.370     0.000     0.220  2500.220
  MAY-03-2014 09:30:00      2.329     0.000     0.218  2500.218
  MAY-03-2014 09:45:00      2.293     0.000     0.216  2500.216
  MAY-03-2014 10:00:00      2.263     0.000     0.214  2500.214
  MAY-03-2014 10:15:00      2.236     0.000     0.212  2500.212
  MAY-03-2014 10:30:00      2.213     0.000     0.211  2500.211
  MAY-03-2014 10:45:00      2.193     0.000     0.210  2500.210
  MAY-03-2014 11:00:00      2.176     0.000     0.209  2500.209
  MAY-03-2014 11:15:00      2.160     0.000     0.209  2500.209
  MAY-03-2014 11:30:00      2.146     0.000     0.209  2500.209
  MAY-03-2014 11:45:00      2.134     0.000     0.208  2500.208
  MAY-03-2014 12:00:00      2.123     0.000     0.208  2500.208
  MAY-03-2014 12:15:00      2.113     0.000     0.208  2500.208
  MAY-03-2014 12:30:00      2.104     0.000     0.207  2500.207
  MAY-03-2014 12:45:00      2.096     0.000     0.207  2500.207
  MAY-03-2014 13:00:00      2.089     0.000     0.207  2500.207
  MAY-03-2014 13:15:00      2.083     0.000     0.206  2500.207
  MAY-03-2014 13:30:00      2.078     0.000     0.206  2500.206
  MAY-03-2014 13:45:00      2.073     0.000     0.206  2500.206
  MAY-03-2014 14:00:00      2.069     0.000     0.206  2500.206
  MAY-03-2014 14:15:00      2.065     0.000     0.206  2500.206
  MAY-03-2014 14:30:00      2.061     0.000     0.206  2500.206
  MAY-03-2014 14:45:00      2.058     0.000     0.206  2500.206
  MAY-03-2014 15:00:00      2.055     0.000     0.205  2500.205
  MAY-03-2014 15:15:00      2.052     0.000     0.205  2500.205
  MAY-03-2014 15:30:00      2.049     0.000     0.205  2500.205
  MAY-03-2014 15:45:00      2.047     0.000     0.205  2500.205
  MAY-03-2014 16:00:00      2.044     0.000     0.205  2500.205
  MAY-03-2014 16:15:00      2.042     0.000     0.205  2500.205
  MAY-03-2014 16:30:00      2.040     0.000     0.205  2500.205
  MAY-03-2014 16:45:00      2.038     0.000     0.204  2500.205
  MAY-03-2014 17:00:00      2.037     0.000     0.204  2500.204
  MAY-03-2014 17:15:00      2.035     0.000     0.204  2500.204
  MAY-03-2014 17:30:00      2.033     0.000     0.204  2500.204
  MAY-03-2014 17:45:00      2.032     0.000     0.204  2500.204
  MAY-03-2014 18:00:00      2.031     0.000     0.204  2500.204
  
  
  <<< Node N-6 >>>
  ----------------------------------------------------------------
                           Inflow  Flooding     Depth      Head
  Date        Time            CMS       CMS    meters    meters
  ----------------------------------------------------------------
  MAY-03-2014 00:15:00      0.973     0.000     0.032  2499.022
  MAY-03-2014 00:30:00      2.156     0.000     0.157  2499.146
  MAY-03-2014 00:45:00      2.167     0.000     0.195  2499.185
  MAY-03-2014 01:00:00      2.050     0.000     0.197  2499.187
  MAY-03-2014 01:15:00      2.002     0.000     0.193  2499.184
  MAY-03-2014 01:30:00      1.995     0.000     0.192  2499.182
  MAY-03-2014 01:45:00      1.998     0.000     0.192  2499.182
  MAY-03-2014 02:00:00      2.000     0.000     0.192  2499.182
  MAY-03-2014 02:15:00      2.000     0.000     0.192  2499.182
  MAY-03-2014 02:30:00      2.000     0.000     0.192  2499.182
  MAY-03-2014 02:45:00      2.000     0.000     0.192  2499.182
  MAY-03-2014 03:00:00      2.000     0.000     0.192  2499.182
  MAY-03-2014 03:15:00      2.000     0.000     0.192  2499.182
  MAY-03-2014 03:30:00      2.000     0.000     0.192  2499.182
  MAY-03-2014 03:45:00      2.017     0.000     0.192  2499.182
  MAY-03-2014 04:00:00      2.336     0.000     0.199  2499.189
  MAY-03-2014 04:15:00      4.111     0.000     0.249  2499.239
  MAY-03-2014 04:30:00      8.278     0.000     0.439  2499.429
  MAY-03-2014 04:45:00     10.938     0.000     0.723  2499.713
  MAY-03-2014 05:00:00     13.342     0.000     1.005  2499.995
  MAY-03-2014 05:15:00     12.109     0.000     1.182  2500.172
  MAY-03-2014 05:30:00      9.571     0.000     1.193  2500.183
  MAY-03-2014 05:45:00      7.551     0.000     1.100  2500.090
  MAY-03-2014 06:00:00      6.219     0.000     0.969  2499.959
  MAY-03-2014 06:15:00      5.313     0.000     0.839  2499.829
  MAY-03-2014 06:30:00      4.667     0.000     0.723  2499.713
  MAY-03-2014 06:45:00      4.190     0.000     0.626  2499.616
  MAY-03-2014 07:00:00      3.826     0.000     0.547  2499.537
  MAY-03-2014 07:15:00      3.542     0.000     0.484  2499.474
  MAY-03-2014 07:30:00      3.317     0.000     0.432  2499.422
  MAY-03-2014 07:45:00      3.134     0.000     0.391  2499.381
  MAY-03-2014 08:00:00      2.984     0.000     0.358  2499.348
  MAY-03-2014 08:15:00      2.859     0.000     0.330  2499.320
  MAY-03-2014 08:30:00      2.754     0.000     0.308  2499.298
  MAY-03-2014 08:45:00      2.665     0.000     0.289  2499.279
  MAY-03-2014 09:00:00      2.589     0.000     0.274  2499.264
  MAY-03-2014 09:15:00      2.523     0.000     0.260  2499.250
  MAY-03-2014 09:30:00      2.466     0.000     0.249  2499.239
  MAY-03-2014 09:45:00      2.417     0.000     0.240  2499.230
  MAY-03-2014 10:00:00      2.373     0.000     0.232  2499.222
  MAY-03-2014 10:15:00      2.335     0.000     0.224  2499.214
  MAY-03-2014 10:30:00      2.301     0.000     0.218  2499.208
  MAY-03-2014 10:45:00      2.272     0.000     0.213  2499.203
  MAY-03-2014 11:00:00      2.242     0.000     0.208  2499.198
  MAY-03-2014 11:15:00      2.212     0.000     0.205  2499.195
  MAY-03-2014 11:30:00      2.195     0.000     0.204  2499.194
  MAY-03-2014 11:45:00      2.178     0.000     0.203  2499.192
  MAY-03-2014 12:00:00      2.161     0.000     0.202  2499.192
  MAY-03-2014 12:15:00      2.145     0.000     0.201  2499.191
  MAY-03-2014 12:30:00      2.131     0.000     0.200  2499.190
  MAY-03-2014 12:45:00      2.119     0.000     0.199  2499.189
  MAY-03-2014 13:00:00      2.108     0.000     0.198  2499.188
  MAY-03-2014 13:15:00      2.098     0.000     0.198  2499.188
  MAY-03-2014 13:30:00      2.090     0.000     0.197  2499.187
  MAY-03-2014 13:45:00      2.082     0.000     0.197  2499.187
  MAY-03-2014 14:00:00      2.076     0.000     0.196  2499.187
  MAY-03-2014 14:15:00      2.070     0.000     0.196  2499.186
  MAY-03-2014 14:30:00      2.065     0.000     0.196  2499.186
  MAY-03-2014 14:45:00      2.060     0.000     0.196  2499.186
  MAY-03-2014 15:00:00      2.057     0.000     0.195  2499.185
  MAY-03-2014 15:15:00      2.054     0.000     0.195  2499.185
  MAY-03-2014 15:30:00      2.051     0.000     0.195  2499.185
  MAY-03-2014 15:45:00      2.049     0.000     0.195  2499.185
  MAY-03-2014 16:00:00      2.046     0.000     0.195  2499.185
  MAY-03-2014 16:15:00      2.044     0.000     0.195  2499.185
  MAY-03-2014 16:30:00      2.042     0.000     0.194  2499.184
  MAY-03-2014 16:45:00      2.040     0.000     0.194  2499.184
  MAY-03-2014 17:00:00      2.038     0.000     0.194  2499.184
  MAY-03-2014 17:15:00      2.036     0.000     0.194  2499.184
  MAY-03-2014 17:30:00      2.035     0.000     0.194  2499.184
  MAY-03-2014 17:45:00      2.033     0.000     0.194  2499.184
  MAY-03-2014 18:00:00      2.032     0.000     0.194  2499.184
  
  
  <<< Node N-7 >>>
  ----------------------------------------------------------------
                           Inflow  Flooding     Depth      Head
  Date        Time            CMS       CMS    meters    meters
  ----------------------------------------------------------------
  MAY-03-2014 00:15:00      0.035     0.000     0.002  2498.642
  MAY-03-2014 00:30:00      1.115     0.000     0.108  2498.748
  MAY-03-2014 00:45:00      2.044     0.000     0.415  2499.054
  MAY-03-2014 01:00:00      2.082     0.000     0.491  2499.130
  MAY-03-2014 01:15:00      2.029     0.000     0.485  2499.125
  MAY-03-2014 01:30:00      2.002     0.000     0.480  2499.119
  MAY-03-2014 01:45:00      1.998     0.000     0.477  2499.117
  MAY-03-2014 02:00:00      1.999     0.000     0.477  2499.117
  MAY-03-2014 02:15:00      2.000     0.000     0.477  2499.117
  MAY-03-2014 02:30:00      2.000     0.000     0.477  2499.117
  MAY-03-2014 02:45:00      2.000     0.000     0.477  2499.117
  MAY-03-2014 03:00:00      2.000     0.000     0.477  2499.117
  MAY-03-2014 03:15:00      2.000     0.000     0.477  2499.117
  MAY-03-2014 03:30:00      2.000     0.000     0.477  2499.117
  MAY-03-2014 03:45:00      2.003     0.000     0.477  2499.117
  MAY-03-2014 04:00:00      2.128     0.000     0.485  2499.125
  MAY-03-2014 04:15:00      3.010     0.000     0.555  2499.194
  MAY-03-2014 04:30:00      5.026     0.000     0.763  2499.403
  MAY-03-2014 04:45:00      7.424     0.000     1.061  2499.701
  MAY-03-2014 05:00:00      9.964     0.000     1.350  2499.990
  MAY-03-2014 05:15:00     10.955     0.000     1.528  2500.168
  MAY-03-2014 05:30:00     10.346     0.000     1.538  2500.178
  MAY-03-2014 05:45:00      9.179     0.000     1.445  2500.084
  MAY-03-2014 06:00:00      7.973     0.000     1.313  2499.953
  MAY-03-2014 06:15:00      6.900     0.000     1.182  2499.822
  MAY-03-2014 06:30:00      5.990     0.000     1.065  2499.705
  MAY-03-2014 06:45:00      5.256     0.000     0.966  2499.606
  MAY-03-2014 07:00:00      4.675     0.000     0.886  2499.526
  MAY-03-2014 07:15:00      4.216     0.000     0.820  2499.460
  MAY-03-2014 07:30:00      3.854     0.000     0.767  2499.407
  MAY-03-2014 07:45:00      3.564     0.000     0.724  2499.364
  MAY-03-2014 08:00:00      3.331     0.000     0.689  2499.329
  MAY-03-2014 08:15:00      3.142     0.000     0.660  2499.300
  MAY-03-2014 08:30:00      2.987     0.000     0.636  2499.276
  MAY-03-2014 08:45:00      2.858     0.000     0.616  2499.255
  MAY-03-2014 09:00:00      2.750     0.000     0.599  2499.239
  MAY-03-2014 09:15:00      2.660     0.000     0.584  2499.224
  MAY-03-2014 09:30:00      2.582     0.000     0.572  2499.212
  MAY-03-2014 09:45:00      2.516     0.000     0.561  2499.201
  MAY-03-2014 10:00:00      2.459     0.000     0.552  2499.192
  MAY-03-2014 10:15:00      2.409     0.000     0.544  2499.184
  MAY-03-2014 10:30:00      2.366     0.000     0.537  2499.177
  MAY-03-2014 10:45:00      2.328     0.000     0.531  2499.171
  MAY-03-2014 11:00:00      2.293     0.000     0.525  2499.165
  MAY-03-2014 11:15:00      2.234     0.000     0.518  2499.157
  MAY-03-2014 11:30:00      2.207     0.000     0.512  2499.152
  MAY-03-2014 11:45:00      2.189     0.000     0.508  2499.148
  MAY-03-2014 12:00:00      2.171     0.000     0.505  2499.145
  MAY-03-2014 12:15:00      2.155     0.000     0.503  2499.143
  MAY-03-2014 12:30:00      2.140     0.000     0.500  2499.140
  MAY-03-2014 12:45:00      2.127     0.000     0.498  2499.138
  MAY-03-2014 13:00:00      2.115     0.000     0.496  2499.136
  MAY-03-2014 13:15:00      2.104     0.000     0.494  2499.134
  MAY-03-2014 13:30:00      2.095     0.000     0.493  2499.133
  MAY-03-2014 13:45:00      2.087     0.000     0.491  2499.131
  MAY-03-2014 14:00:00      2.080     0.000     0.490  2499.130
  MAY-03-2014 14:15:00      2.074     0.000     0.489  2499.129
  MAY-03-2014 14:30:00      2.068     0.000     0.488  2499.128
  MAY-03-2014 14:45:00      2.063     0.000     0.487  2499.127
  MAY-03-2014 15:00:00      2.059     0.000     0.487  2499.126
  MAY-03-2014 15:15:00      2.056     0.000     0.486  2499.126
  MAY-03-2014 15:30:00      2.053     0.000     0.486  2499.125
  MAY-03-2014 15:45:00      2.051     0.000     0.485  2499.125
  MAY-03-2014 16:00:00      2.048     0.000     0.485  2499.125
  MAY-03-2014 16:15:00      2.046     0.000     0.484  2499.124
  MAY-03-2014 16:30:00      2.043     0.000     0.484  2499.124
  MAY-03-2014 16:45:00      2.041     0.000     0.484  2499.124
  MAY-03-2014 17:00:00      2.039     0.000     0.483  2499.123
  MAY-03-2014 17:15:00      2.037     0.000     0.483  2499.123
  MAY-03-2014 17:30:00      2.036     0.000     0.483  2499.123
  MAY-03-2014 17:45:00      2.034     0.000     0.482  2499.122
  MAY-03-2014 18:00:00      2.033     0.000     0.482  2499.122
  
  
  <<< Node N-9 >>>
  ----------------------------------------------------------------
                           Inflow  Flooding     Depth      Head
  Date        Time            CMS       CMS    meters    meters
  ----------------------------------------------------------------
  MAY-03-2014 00:15:00      0.000     0.000     0.000  2498.000
  MAY-03-2014 00:30:00      0.073     0.000     0.009  2498.009
  MAY-03-2014 00:45:00      1.399     0.000     0.270  2498.270
  MAY-03-2014 01:00:00      2.060     0.000     0.474  2498.474
  MAY-03-2014 01:15:00      2.055     0.000     0.534  2498.534
  MAY-03-2014 01:30:00      2.017     0.000     0.542  2498.542
  MAY-03-2014 01:45:00      2.002     0.000     0.541  2498.541
  MAY-03-2014 02:00:00      1.999     0.000     0.540  2498.540
  MAY-03-2014 02:15:00      1.999     0.000     0.540  2498.540
  MAY-03-2014 02:30:00      2.000     0.000     0.540  2498.540
  MAY-03-2014 02:45:00      2.000     0.000     0.540  2498.540
  MAY-03-2014 03:00:00      2.000     0.000     0.540  2498.540
  MAY-03-2014 03:15:00      2.000     0.000     0.540  2498.540
  MAY-03-2014 03:30:00      2.000     0.000     0.540  2498.540
  MAY-03-2014 03:45:00      2.001     0.000     0.540  2498.541
  MAY-03-2014 04:00:00      2.047     0.000     0.544  2498.544
  MAY-03-2014 04:15:00      2.491     0.000     0.583  2498.583
  MAY-03-2014 04:30:00      3.865     0.000     0.724  2498.724
  MAY-03-2014 04:45:00      6.258     0.000     0.986  2498.986
  MAY-03-2014 05:00:00      8.835     0.000     1.263  2499.263
  MAY-03-2014 05:15:00     10.531     0.000     1.485  2499.485
  MAY-03-2014 05:30:00     10.578     0.000     1.559  2499.559
  MAY-03-2014 05:45:00      9.699     0.000     1.490  2499.490
  MAY-03-2014 06:00:00      8.546     0.000     1.367  2499.367
  MAY-03-2014 06:15:00      7.423     0.000     1.229  2499.229
  MAY-03-2014 06:30:00      6.427     0.000     1.126  2499.126
  MAY-03-2014 06:45:00      5.611     0.000     1.050  2499.050
  MAY-03-2014 07:00:00      4.961     0.000     0.977  2498.978
  MAY-03-2014 07:15:00      4.445     0.000     0.920  2498.920
  MAY-03-2014 07:30:00      4.037     0.000     0.865  2498.865
  MAY-03-2014 07:45:00      3.712     0.000     0.811  2498.811
  MAY-03-2014 08:00:00      3.452     0.000     0.763  2498.763
  MAY-03-2014 08:15:00      3.241     0.000     0.722  2498.721
  MAY-03-2014 08:30:00      3.069     0.000     0.693  2498.693
  MAY-03-2014 08:45:00      2.927     0.000     0.673  2498.673
  MAY-03-2014 09:00:00      2.809     0.000     0.656  2498.656
  MAY-03-2014 09:15:00      2.709     0.000     0.641  2498.641
  MAY-03-2014 09:30:00      2.625     0.000     0.629  2498.629
  MAY-03-2014 09:45:00      2.552     0.000     0.621  2498.621
  MAY-03-2014 10:00:00      2.490     0.000     0.613  2498.613
  MAY-03-2014 10:15:00      2.437     0.000     0.605  2498.605
  MAY-03-2014 10:30:00      2.390     0.000     0.598  2498.598
  MAY-03-2014 10:45:00      2.349     0.000     0.592  2498.592
  MAY-03-2014 11:00:00      2.313     0.000     0.588  2498.588
  MAY-03-2014 11:15:00      2.262     0.000     0.583  2498.583
  MAY-03-2014 11:30:00      2.223     0.000     0.577  2498.577
  MAY-03-2014 11:45:00      2.200     0.000     0.572  2498.572
  MAY-03-2014 12:00:00      2.181     0.000     0.569  2498.569
  MAY-03-2014 12:15:00      2.164     0.000     0.567  2498.567
  MAY-03-2014 12:30:00      2.149     0.000     0.564  2498.564
  MAY-03-2014 12:45:00      2.135     0.000     0.562  2498.562
  MAY-03-2014 13:00:00      2.122     0.000     0.560  2498.560
  MAY-03-2014 13:15:00      2.110     0.000     0.558  2498.558
  MAY-03-2014 13:30:00      2.100     0.000     0.556  2498.556
  MAY-03-2014 13:45:00      2.092     0.000     0.555  2498.555
  MAY-03-2014 14:00:00      2.084     0.000     0.554  2498.554
  MAY-03-2014 14:15:00      2.077     0.000     0.553  2498.553
  MAY-03-2014 14:30:00      2.071     0.000     0.552  2498.552
  MAY-03-2014 14:45:00      2.066     0.000     0.551  2498.551
  MAY-03-2014 15:00:00      2.062     0.000     0.550  2498.550
  MAY-03-2014 15:15:00      2.058     0.000     0.550  2498.550
  MAY-03-2014 15:30:00      2.055     0.000     0.549  2498.549
  MAY-03-2014 15:45:00      2.052     0.000     0.549  2498.549
  MAY-03-2014 16:00:00      2.049     0.000     0.548  2498.548
  MAY-03-2014 16:15:00      2.047     0.000     0.548  2498.548
  MAY-03-2014 16:30:00      2.045     0.000     0.547  2498.547
  MAY-03-2014 16:45:00      2.042     0.000     0.547  2498.547
  MAY-03-2014 17:00:00      2.040     0.000     0.547  2498.547
  MAY-03-2014 17:15:00      2.038     0.000     0.546  2498.546
  MAY-03-2014 17:30:00      2.037     0.000     0.546  2498.546
  MAY-03-2014 17:45:00      2.035     0.000     0.546  2498.546
  MAY-03-2014 18:00:00      2.034     0.000     0.546  2498.546
  
  
  <<< Node N-13 >>>
  ----------------------------------------------------------------
                           Inflow  Flooding     Depth      Head
  Date        Time            CMS       CMS    meters    meters
  ----------------------------------------------------------------
  MAY-03-2014 00:15:00      0.000     0.000     0.000  2498.000
  MAY-03-2014 00:30:00      0.002     0.000     0.002  2498.001
  MAY-03-2014 00:45:00      0.360     0.000     0.138  2498.138
  MAY-03-2014 01:00:00      0.665     0.000     0.362  2498.362
  MAY-03-2014 01:15:00      0.672     0.000     0.456  2498.456
  MAY-03-2014 01:30:00      0.655     0.000     0.472  2498.472
  MAY-03-2014 01:45:00      0.649     0.000     0.473  2498.473
  MAY-03-2014 02:00:00      0.648     0.000     0.472  2498.472
  MAY-03-2014 02:15:00      0.648     0.000     0.472  2498.472
  MAY-03-2014 02:30:00      0.648     0.000     0.472  2498.472
  MAY-03-2014 02:45:00      0.648     0.000     0.472  2498.472
  MAY-03-2014 03:00:00      0.648     0.000     0.472  2498.472
  MAY-03-2014 03:15:00      0.648     0.000     0.472  2498.472
  MAY-03-2014 03:30:00      0.648     0.000     0.472  2498.472
  MAY-03-2014 03:45:00      0.648     0.000     0.472  2498.472
  MAY-03-2014 04:00:00      0.660     0.000     0.473  2498.473
  MAY-03-2014 04:15:00      0.781     0.000     0.491  2498.491
  MAY-03-2014 04:30:00      1.194     0.000     0.573  2498.573
  MAY-03-2014 04:45:00      1.976     0.000     0.760  2498.760
  MAY-03-2014 05:00:00      2.812     0.000     0.989  2498.989
  MAY-03-2014 05:15:00      3.379     0.000     1.213  2499.213
  MAY-03-2014 05:30:00      3.391     0.000     1.324  2499.323
  MAY-03-2014 05:45:00      3.185     0.000     1.264  2499.263
  MAY-03-2014 06:00:00      2.831     0.000     1.152  2499.152
  MAY-03-2014 06:15:00      2.476     0.000     1.022  2499.022
  MAY-03-2014 06:30:00      2.190     0.000     0.931  2498.931
  MAY-03-2014 06:45:00      1.966     0.000     0.870  2498.870
  MAY-03-2014 07:00:00      1.763     0.000     0.811  2498.811
  MAY-03-2014 07:15:00      1.604     0.000     0.765  2498.765
  MAY-03-2014 07:30:00      1.450     0.000     0.722  2498.722
  MAY-03-2014 07:45:00      1.305     0.000     0.680  2498.680
  MAY-03-2014 08:00:00      1.181     0.000     0.643  2498.643
  MAY-03-2014 08:15:00      1.077     0.000     0.610  2498.610
  MAY-03-2014 08:30:00      1.013     0.000     0.587  2498.587
  MAY-03-2014 08:45:00      0.964     0.000     0.571  2498.571
  MAY-03-2014 09:00:00      0.925     0.000     0.557  2498.557
  MAY-03-2014 09:15:00      0.891     0.000     0.546  2498.546
  MAY-03-2014 09:30:00      0.863     0.000     0.536  2498.536
  MAY-03-2014 09:45:00      0.846     0.000     0.529  2498.529
  MAY-03-2014 10:00:00      0.827     0.000     0.523  2498.523
  MAY-03-2014 10:15:00      0.809     0.000     0.517  2498.517
  MAY-03-2014 10:30:00      0.793     0.000     0.512  2498.511
  MAY-03-2014 10:45:00      0.779     0.000     0.507  2498.507
  MAY-03-2014 11:00:00      0.752     0.000     0.510  2498.510
  MAY-03-2014 11:15:00      0.735     0.000     0.507  2498.507
  MAY-03-2014 11:30:00      0.722     0.000     0.502  2498.502
  MAY-03-2014 11:45:00      0.714     0.000     0.498  2498.498
  MAY-03-2014 12:00:00      0.708     0.000     0.495  2498.495
  MAY-03-2014 12:15:00      0.702     0.000     0.493  2498.493
  MAY-03-2014 12:30:00      0.697     0.000     0.491  2498.491
  MAY-03-2014 12:45:00      0.693     0.000     0.489  2498.489
  MAY-03-2014 13:00:00      0.688     0.000     0.488  2498.488
  MAY-03-2014 13:15:00      0.685     0.000     0.486  2498.486
  MAY-03-2014 13:30:00      0.681     0.000     0.485  2498.485
  MAY-03-2014 13:45:00      0.678     0.000     0.484  2498.484
  MAY-03-2014 14:00:00      0.676     0.000     0.483  2498.483
  MAY-03-2014 14:15:00      0.674     0.000     0.482  2498.482
  MAY-03-2014 14:30:00      0.672     0.000     0.481  2498.481
  MAY-03-2014 14:45:00      0.670     0.000     0.480  2498.480
  MAY-03-2014 15:00:00      0.668     0.000     0.480  2498.480
  MAY-03-2014 15:15:00      0.667     0.000     0.479  2498.479
  MAY-03-2014 15:30:00      0.666     0.000     0.479  2498.479
  MAY-03-2014 15:45:00      0.665     0.000     0.479  2498.479
  MAY-03-2014 16:00:00      0.664     0.000     0.478  2498.478
  MAY-03-2014 16:15:00      0.664     0.000     0.478  2498.478
  MAY-03-2014 16:30:00      0.663     0.000     0.478  2498.478
  MAY-03-2014 16:45:00      0.662     0.000     0.477  2498.477
  MAY-03-2014 17:00:00      0.661     0.000     0.477  2498.477
  MAY-03-2014 17:15:00      0.661     0.000     0.477  2498.477
  MAY-03-2014 17:30:00      0.660     0.000     0.477  2498.477
  MAY-03-2014 17:45:00      0.660     0.000     0.476  2498.476
  MAY-03-2014 18:00:00      0.659     0.000     0.476  2498.476
  
  
  <<< Node N-14 >>>
  ----------------------------------------------------------------
                           Inflow  Flooding     Depth      Head
  Date        Time            CMS       CMS    meters    meters
  ----------------------------------------------------------------
  MAY-03-2014 00:15:00      0.000     0.000     0.000  2498.000
  MAY-03-2014 00:30:00      0.002     0.000     0.002  2498.002
  MAY-03-2014 00:45:00      0.352     0.000     0.147  2498.147
  MAY-03-2014 01:00:00      0.675     0.000     0.357  2498.357
  MAY-03-2014 01:15:00      0.744     0.000     0.430  2498.430
  MAY-03-2014 01:30:00      0.748     0.000     0.442  2498.442
  MAY-03-2014 01:45:00      0.744     0.000     0.442  2498.442
  MAY-03-2014 02:00:00      0.743     0.000     0.441  2498.441
  MAY-03-2014 02:15:00      0.743     0.000     0.441  2498.441
  MAY-03-2014 02:30:00      0.743     0.000     0.441  2498.441
  MAY-03-2014 02:45:00      0.743     0.000     0.441  2498.441
  MAY-03-2014 03:00:00      0.743     0.000     0.441  2498.441
  MAY-03-2014 03:15:00      0.743     0.000     0.441  2498.441
  MAY-03-2014 03:30:00      0.743     0.000     0.441  2498.441
  MAY-03-2014 03:45:00      0.743     0.000     0.441  2498.441
  MAY-03-2014 04:00:00      0.754     0.000     0.443  2498.443
  MAY-03-2014 04:15:00      0.869     0.000     0.460  2498.460
  MAY-03-2014 04:30:00      1.283     0.000     0.541  2498.541
  MAY-03-2014 04:45:00      2.103     0.000     0.716  2498.716
  MAY-03-2014 05:00:00      3.038     0.000     0.923  2498.923
  MAY-03-2014 05:15:00      3.757     0.000     1.120  2499.120
  MAY-03-2014 05:30:00      3.902     0.000     1.213  2499.213
  MAY-03-2014 05:45:00      3.611     0.000     1.170  2499.170
  MAY-03-2014 06:00:00      3.198     0.000     1.067  2499.067
  MAY-03-2014 06:15:00      2.746     0.000     0.954  2498.954
  MAY-03-2014 06:30:00      2.420     0.000     0.870  2498.870
  MAY-03-2014 06:45:00      2.169     0.000     0.814  2498.814
  MAY-03-2014 07:00:00      1.943     0.000     0.760  2498.760
  MAY-03-2014 07:15:00      1.768     0.000     0.717  2498.717
  MAY-03-2014 07:30:00      1.599     0.000     0.678  2498.678
  MAY-03-2014 07:45:00      1.440     0.000     0.640  2498.640
  MAY-03-2014 08:00:00      1.305     0.000     0.606  2498.605
  MAY-03-2014 08:15:00      1.190     0.000     0.576  2498.575
  MAY-03-2014 08:30:00      1.120     0.000     0.553  2498.553
  MAY-03-2014 08:45:00      1.067     0.000     0.538  2498.538
  MAY-03-2014 09:00:00      1.023     0.000     0.526  2498.526
  MAY-03-2014 09:15:00      0.987     0.000     0.515  2498.515
  MAY-03-2014 09:30:00      0.955     0.000     0.506  2498.506
  MAY-03-2014 09:45:00      0.937     0.000     0.499  2498.500
  MAY-03-2014 10:00:00      0.916     0.000     0.494  2498.494
  MAY-03-2014 10:15:00      0.896     0.000     0.489  2498.489
  MAY-03-2014 10:30:00      0.879     0.000     0.483  2498.483
  MAY-03-2014 10:45:00      0.864     0.000     0.479  2498.479
  MAY-03-2014 11:00:00      0.857     0.000     0.476  2498.476
  MAY-03-2014 11:15:00      0.842     0.000     0.473  2498.473
  MAY-03-2014 11:30:00      0.827     0.000     0.468  2498.468
  MAY-03-2014 11:45:00      0.818     0.000     0.465  2498.465
  MAY-03-2014 12:00:00      0.810     0.000     0.462  2498.462
  MAY-03-2014 12:15:00      0.804     0.000     0.460  2498.460
  MAY-03-2014 12:30:00      0.798     0.000     0.459  2498.459
  MAY-03-2014 12:45:00      0.793     0.000     0.457  2498.457
  MAY-03-2014 13:00:00      0.788     0.000     0.456  2498.456
  MAY-03-2014 13:15:00      0.784     0.000     0.454  2498.454
  MAY-03-2014 13:30:00      0.780     0.000     0.453  2498.453
  MAY-03-2014 13:45:00      0.777     0.000     0.452  2498.452
  MAY-03-2014 14:00:00      0.774     0.000     0.451  2498.451
  MAY-03-2014 14:15:00      0.772     0.000     0.450  2498.450
  MAY-03-2014 14:30:00      0.769     0.000     0.450  2498.450
  MAY-03-2014 14:45:00      0.767     0.000     0.449  2498.449
  MAY-03-2014 15:00:00      0.766     0.000     0.448  2498.448
  MAY-03-2014 15:15:00      0.764     0.000     0.448  2498.448
  MAY-03-2014 15:30:00      0.763     0.000     0.448  2498.448
  MAY-03-2014 15:45:00      0.762     0.000     0.447  2498.447
  MAY-03-2014 16:00:00      0.761     0.000     0.447  2498.447
  MAY-03-2014 16:15:00      0.760     0.000     0.447  2498.447
  MAY-03-2014 16:30:00      0.759     0.000     0.446  2498.447
  MAY-03-2014 16:45:00      0.759     0.000     0.446  2498.446
  MAY-03-2014 17:00:00      0.758     0.000     0.446  2498.446
  MAY-03-2014 17:15:00      0.757     0.000     0.446  2498.446
  MAY-03-2014 17:30:00      0.756     0.000     0.446  2498.446
  MAY-03-2014 17:45:00      0.756     0.000     0.445  2498.445
  MAY-03-2014 18:00:00      0.755     0.000     0.445  2498.445
  
  
  <<< Node N-15 >>>
  ----------------------------------------------------------------
                           Inflow  Flooding     Depth      Head
  Date        Time            CMS       CMS    meters    meters
  ----------------------------------------------------------------
  MAY-03-2014 00:15:00      0.000     0.000     0.000  2498.000
  MAY-03-2014 00:30:00      0.002     0.000     0.002  2498.002
  MAY-03-2014 00:45:00      0.323     0.000     0.176  2498.176
  MAY-03-2014 01:00:00      0.564     0.000     0.403  2498.403
  MAY-03-2014 01:15:00      0.611     0.000     0.473  2498.473
  MAY-03-2014 01:30:00      0.613     0.000     0.484  2498.483
  MAY-03-2014 01:45:00      0.610     0.000     0.483  2498.483
  MAY-03-2014 02:00:00      0.609     0.000     0.483  2498.483
  MAY-03-2014 02:15:00      0.609     0.000     0.483  2498.482
  MAY-03-2014 02:30:00      0.609     0.000     0.483  2498.483
  MAY-03-2014 02:45:00      0.609     0.000     0.483  2498.483
  MAY-03-2014 03:00:00      0.609     0.000     0.483  2498.483
  MAY-03-2014 03:15:00      0.609     0.000     0.483  2498.483
  MAY-03-2014 03:30:00      0.609     0.000     0.483  2498.483
  MAY-03-2014 03:45:00      0.609     0.000     0.483  2498.483
  MAY-03-2014 04:00:00      0.619     0.000     0.484  2498.484
  MAY-03-2014 04:15:00      0.729     0.000     0.507  2498.507
  MAY-03-2014 04:30:00      1.105     0.000     0.602  2498.602
  MAY-03-2014 04:45:00      1.826     0.000     0.804  2498.804
  MAY-03-2014 05:00:00      2.627     0.000     1.036  2499.036
  MAY-03-2014 05:15:00      3.196     0.000     1.251  2499.251
  MAY-03-2014 05:30:00      3.286     0.000     1.342  2499.343
  MAY-03-2014 05:45:00      3.042     0.000     1.290  2499.290
  MAY-03-2014 06:00:00      2.698     0.000     1.178  2499.178
  MAY-03-2014 06:15:00      2.358     0.000     1.048  2499.048
  MAY-03-2014 06:30:00      1.903     0.000     0.994  2498.994
  MAY-03-2014 06:45:00      1.579     0.000     0.950  2498.950
  MAY-03-2014 07:00:00      1.336     0.000     0.899  2498.898
  MAY-03-2014 07:15:00      1.143     0.000     0.857  2498.857
  MAY-03-2014 07:30:00      1.059     0.000     0.803  2498.803
  MAY-03-2014 07:45:00      1.033     0.000     0.741  2498.741
  MAY-03-2014 08:00:00      1.023     0.000     0.681  2498.681
  MAY-03-2014 08:15:00      1.022     0.000     0.625  2498.625
  MAY-03-2014 08:30:00      0.966     0.000     0.600  2498.600
  MAY-03-2014 08:45:00      0.919     0.000     0.583  2498.583
  MAY-03-2014 09:00:00      0.881     0.000     0.569  2498.569
  MAY-03-2014 09:15:00      0.848     0.000     0.558  2498.558
  MAY-03-2014 09:30:00      0.821     0.000     0.548  2498.548
  MAY-03-2014 09:45:00      0.777     0.000     0.548  2498.548
  MAY-03-2014 10:00:00      0.758     0.000     0.542  2498.542
  MAY-03-2014 10:15:00      0.741     0.000     0.536  2498.536
  MAY-03-2014 10:30:00      0.726     0.000     0.530  2498.530
  MAY-03-2014 10:45:00      0.713     0.000     0.525  2498.525
  MAY-03-2014 11:00:00      0.708     0.000     0.522  2498.521
  MAY-03-2014 11:15:00      0.694     0.000     0.518  2498.518
  MAY-03-2014 11:30:00      0.681     0.000     0.513  2498.512
  MAY-03-2014 11:45:00      0.673     0.000     0.509  2498.509
  MAY-03-2014 12:00:00      0.667     0.000     0.506  2498.506
  MAY-03-2014 12:15:00      0.661     0.000     0.504  2498.504
  MAY-03-2014 12:30:00      0.656     0.000     0.502  2498.502
  MAY-03-2014 12:45:00      0.652     0.000     0.500  2498.500
  MAY-03-2014 13:00:00      0.648     0.000     0.499  2498.499
  MAY-03-2014 13:15:00      0.644     0.000     0.497  2498.497
  MAY-03-2014 13:30:00      0.641     0.000     0.496  2498.496
  MAY-03-2014 13:45:00      0.638     0.000     0.495  2498.495
  MAY-03-2014 14:00:00      0.636     0.000     0.494  2498.494
  MAY-03-2014 14:15:00      0.633     0.000     0.493  2498.493
  MAY-03-2014 14:30:00      0.631     0.000     0.492  2498.492
  MAY-03-2014 14:45:00      0.630     0.000     0.491  2498.491
  MAY-03-2014 15:00:00      0.628     0.000     0.491  2498.490
  MAY-03-2014 15:15:00      0.627     0.000     0.490  2498.490
  MAY-03-2014 15:30:00      0.626     0.000     0.490  2498.490
  MAY-03-2014 15:45:00      0.625     0.000     0.489  2498.489
  MAY-03-2014 16:00:00      0.624     0.000     0.489  2498.489
  MAY-03-2014 16:15:00      0.624     0.000     0.489  2498.489
  MAY-03-2014 16:30:00      0.623     0.000     0.488  2498.488
  MAY-03-2014 16:45:00      0.622     0.000     0.488  2498.488
  MAY-03-2014 17:00:00      0.622     0.000     0.488  2498.488
  MAY-03-2014 17:15:00      0.621     0.000     0.488  2498.488
  MAY-03-2014 17:30:00      0.620     0.000     0.487  2498.487
  MAY-03-2014 17:45:00      0.620     0.000     0.487  2498.487
  MAY-03-2014 18:00:00      0.619     0.000     0.487  2498.487
  
  
  <<< Node DES-1 >>>
  ----------------------------------------------------------------
                           Inflow  Flooding     Depth      Head
  Date        Time            CMS       CMS    meters    meters
  ----------------------------------------------------------------
  MAY-03-2014 00:15:00      0.000     0.000     0.000  2492.000
  MAY-03-2014 00:30:00      0.000     0.000     0.000  2492.000
  MAY-03-2014 00:45:00      0.000     0.000     0.000  2492.000
  MAY-03-2014 01:00:00      0.004     0.000     0.037  2492.037
  MAY-03-2014 01:15:00      0.052     0.000     0.120  2492.120
  MAY-03-2014 01:30:00      0.163     0.000     0.211  2492.211
  MAY-03-2014 01:45:00      0.300     0.000     0.288  2492.288
  MAY-03-2014 02:00:00      0.424     0.000     0.346  2492.346
  MAY-03-2014 02:15:00      0.521     0.000     0.388  2492.388
  MAY-03-2014 02:30:00      0.591     0.000     0.417  2492.417
  MAY-03-2014 02:45:00      0.640     0.000     0.436  2492.436
  MAY-03-2014 03:00:00      0.674     0.000     0.450  2492.450
  MAY-03-2014 03:15:00      0.697     0.000     0.459  2492.458
  MAY-03-2014 03:30:00      0.712     0.000     0.465  2492.465
  MAY-03-2014 03:45:00      0.722     0.000     0.469  2492.469
  MAY-03-2014 04:00:00      0.729     0.000     0.471  2492.471
  MAY-03-2014 04:15:00      0.739     0.000     0.475  2492.475
  MAY-03-2014 04:30:00      0.782     0.000     0.492  2492.492
  MAY-03-2014 04:45:00      0.940     0.000     0.553  2492.553
  MAY-03-2014 05:00:00      1.276     0.000     0.669  2492.668
  MAY-03-2014 05:15:00      1.491     0.000     0.721  2492.721
  MAY-03-2014 05:30:00      1.670     0.000     0.757  2492.758
  MAY-03-2014 05:45:00      1.837     0.000     0.786  2492.786
  MAY-03-2014 06:00:00      1.963     0.000     0.804  2492.804
  MAY-03-2014 06:15:00      2.046     0.000     0.815  2492.815
  MAY-03-2014 06:30:00      2.093     0.000     0.821  2492.821
  MAY-03-2014 06:45:00      2.115     0.000     0.824  2492.824
  MAY-03-2014 07:00:00      2.119     0.000     0.824  2492.824
  MAY-03-2014 07:15:00      2.108     0.000     0.823  2492.823
  MAY-03-2014 07:30:00      2.086     0.000     0.820  2492.820
  MAY-03-2014 07:45:00      2.055     0.000     0.816  2492.816
  MAY-03-2014 08:00:00      2.015     0.000     0.811  2492.811
  MAY-03-2014 08:15:00      1.968     0.000     0.805  2492.805
  MAY-03-2014 08:30:00      1.915     0.000     0.798  2492.798
  MAY-03-2014 08:45:00      1.860     0.000     0.790  2492.790
  MAY-03-2014 09:00:00      1.803     0.000     0.780  2492.780
  MAY-03-2014 09:15:00      1.745     0.000     0.770  2492.770
  MAY-03-2014 09:30:00      1.687     0.000     0.760  2492.760
  MAY-03-2014 09:45:00      1.630     0.000     0.749  2492.749
  MAY-03-2014 10:00:00      1.573     0.000     0.738  2492.738
  MAY-03-2014 10:15:00      1.518     0.000     0.726  2492.726
  MAY-03-2014 10:30:00      1.464     0.000     0.714  2492.714
  MAY-03-2014 10:45:00      1.445     0.000     0.710  2492.710
  MAY-03-2014 11:00:00      1.347     0.000     0.687  2492.687
  MAY-03-2014 11:15:00      1.223     0.000     0.655  2492.655
  MAY-03-2014 11:30:00      1.098     0.000     0.617  2492.617
  MAY-03-2014 11:45:00      1.021     0.000     0.585  2492.585
  MAY-03-2014 12:00:00      0.958     0.000     0.560  2492.560
  MAY-03-2014 12:15:00      0.910     0.000     0.541  2492.541
  MAY-03-2014 12:30:00      0.875     0.000     0.528  2492.528
  MAY-03-2014 12:45:00      0.850     0.000     0.518  2492.518
  MAY-03-2014 13:00:00      0.831     0.000     0.511  2492.511
  MAY-03-2014 13:15:00      0.817     0.000     0.505  2492.505
  MAY-03-2014 13:30:00      0.806     0.000     0.501  2492.501
  MAY-03-2014 13:45:00      0.798     0.000     0.498  2492.498
  MAY-03-2014 14:00:00      0.791     0.000     0.495  2492.495
  MAY-03-2014 14:15:00      0.786     0.000     0.493  2492.493
  MAY-03-2014 14:30:00      0.781     0.000     0.491  2492.491
  MAY-03-2014 14:45:00      0.777     0.000     0.490  2492.490
  MAY-03-2014 15:00:00      0.774     0.000     0.489  2492.489
  MAY-03-2014 15:15:00      0.771     0.000     0.488  2492.488
  MAY-03-2014 15:30:00      0.769     0.000     0.487  2492.487
  MAY-03-2014 15:45:00      0.767     0.000     0.486  2492.486
  MAY-03-2014 16:00:00      0.766     0.000     0.485  2492.485
  MAY-03-2014 16:15:00      0.764     0.000     0.485  2492.485
  MAY-03-2014 16:30:00      0.763     0.000     0.484  2492.484
  MAY-03-2014 16:45:00      0.762     0.000     0.484  2492.484
  MAY-03-2014 17:00:00      0.761     0.000     0.483  2492.483
  MAY-03-2014 17:15:00      0.760     0.000     0.483  2492.483
  MAY-03-2014 17:30:00      0.759     0.000     0.483  2492.483
  MAY-03-2014 17:45:00      0.758     0.000     0.482  2492.482
  MAY-03-2014 18:00:00      0.757     0.000     0.482  2492.482
  
  
  <<< Node DES-2 >>>
  ----------------------------------------------------------------
                           Inflow  Flooding     Depth      Head
  Date        Time            CMS       CMS    meters    meters
  ----------------------------------------------------------------
  MAY-03-2014 00:15:00      0.000     0.000     0.000  2493.630
  MAY-03-2014 00:30:00      0.000     0.000     0.000  2493.630
  MAY-03-2014 00:45:00      0.000     0.000     0.000  2493.630
  MAY-03-2014 01:00:00      0.021     0.000     0.075  2493.705
  MAY-03-2014 01:15:00      0.217     0.000     0.242  2493.872
  MAY-03-2014 01:30:00      0.463     0.000     0.374  2494.004
  MAY-03-2014 01:45:00      0.578     0.000     0.435  2494.064
  MAY-03-2014 02:00:00      0.620     0.000     0.458  2494.088
  MAY-03-2014 02:15:00      0.636     0.000     0.467  2494.097
  MAY-03-2014 02:30:00      0.643     0.000     0.471  2494.101
  MAY-03-2014 02:45:00      0.646     0.000     0.473  2494.103
  MAY-03-2014 03:00:00      0.647     0.000     0.474  2494.104
  MAY-03-2014 03:15:00      0.648     0.000     0.474  2494.104
  MAY-03-2014 03:30:00      0.648     0.000     0.474  2494.104
  MAY-03-2014 03:45:00      0.648     0.000     0.474  2494.104
  MAY-03-2014 04:00:00      0.648     0.000     0.475  2494.104
  MAY-03-2014 04:15:00      0.656     0.000     0.479  2494.109
  MAY-03-2014 04:30:00      0.712     0.000     0.516  2494.146
  MAY-03-2014 04:45:00      0.797     0.000     0.563  2494.193
  MAY-03-2014 05:00:00      0.989     0.000     0.603  2494.232
  MAY-03-2014 05:15:00      1.142     0.000     0.621  2494.251
  MAY-03-2014 05:30:00      1.027     0.000     0.607  2494.237
  MAY-03-2014 05:45:00      1.328     0.000     0.650  2494.280
  MAY-03-2014 06:00:00      1.350     0.000     0.650  2494.280
  MAY-03-2014 06:15:00      1.350     0.000     0.650  2494.280
  MAY-03-2014 06:30:00      1.350     0.000     0.650  2494.280
  MAY-03-2014 06:45:00      1.350     0.000     0.650  2494.280
  MAY-03-2014 07:00:00      1.350     0.000     0.650  2494.280
  MAY-03-2014 07:15:00      1.350     0.000     0.650  2494.280
  MAY-03-2014 07:30:00      1.350     0.000     0.650  2494.280
  MAY-03-2014 07:45:00      1.350     0.000     0.650  2494.280
  MAY-03-2014 08:00:00      1.349     0.000     0.650  2494.280
  MAY-03-2014 08:15:00      1.342     0.000     0.650  2494.280
  MAY-03-2014 08:30:00      1.330     0.000     0.650  2494.280
  MAY-03-2014 08:45:00      1.314     0.000     0.650  2494.280
  MAY-03-2014 09:00:00      1.296     0.000     0.650  2494.280
  MAY-03-2014 09:15:00      1.277     0.000     0.650  2494.280
  MAY-03-2014 09:30:00      1.258     0.000     0.650  2494.280
  MAY-03-2014 09:45:00      1.237     0.000     0.650  2494.280
  MAY-03-2014 10:00:00      1.217     0.000     0.650  2494.280
  MAY-03-2014 10:15:00      1.196     0.000     0.650  2494.280
  MAY-03-2014 10:30:00      1.175     0.000     0.650  2494.280
  MAY-03-2014 10:45:00      1.040     0.000     0.609  2494.239
  MAY-03-2014 11:00:00      1.015     0.000     0.606  2494.236
  MAY-03-2014 11:15:00      0.987     0.000     0.602  2494.232
  MAY-03-2014 11:30:00      1.054     0.000     0.611  2494.240
  MAY-03-2014 11:45:00      0.983     0.000     0.602  2494.232
  MAY-03-2014 12:00:00      1.138     0.000     0.621  2494.251
  MAY-03-2014 12:15:00      1.088     0.000     0.615  2494.245
  MAY-03-2014 12:30:00      1.071     0.000     0.613  2494.242
  MAY-03-2014 12:45:00      1.041     0.000     0.609  2494.239
  MAY-03-2014 13:00:00      1.121     0.000     0.619  2494.249
  MAY-03-2014 13:15:00      1.052     0.000     0.610  2494.240
  MAY-03-2014 13:30:00      0.991     0.000     0.603  2494.233
  MAY-03-2014 13:45:00      0.937     0.000     0.595  2494.225
  MAY-03-2014 14:00:00      0.889     0.000     0.585  2494.215
  MAY-03-2014 14:15:00      0.848     0.000     0.576  2494.206
  MAY-03-2014 14:30:00      0.814     0.000     0.568  2494.198
  MAY-03-2014 14:45:00      0.785     0.000     0.560  2494.189
  MAY-03-2014 15:00:00      0.787     0.000     0.560  2494.190
  MAY-03-2014 15:15:00      0.758     0.000     0.552  2494.182
  MAY-03-2014 15:30:00      0.721     0.000     0.523  2494.153
  MAY-03-2014 15:45:00      0.695     0.000     0.504  2494.134
  MAY-03-2014 16:00:00      0.680     0.000     0.494  2494.124
  MAY-03-2014 16:15:00      0.672     0.000     0.489  2494.119
  MAY-03-2014 16:30:00      0.668     0.000     0.486  2494.116
  MAY-03-2014 16:45:00      0.665     0.000     0.485  2494.115
  MAY-03-2014 17:00:00      0.664     0.000     0.484  2494.114
  MAY-03-2014 17:15:00      0.662     0.000     0.483  2494.113
  MAY-03-2014 17:30:00      0.662     0.000     0.483  2494.113
  MAY-03-2014 17:45:00      0.661     0.000     0.482  2494.112
  MAY-03-2014 18:00:00      0.660     0.000     0.482  2494.112
  
  
  <<< Node DES-3 >>>
  ----------------------------------------------------------------
                           Inflow  Flooding     Depth      Head
  Date        Time            CMS       CMS    meters    meters
  ----------------------------------------------------------------
  MAY-03-2014 00:15:00      0.000     0.000     0.000  2493.130
  MAY-03-2014 00:30:00      0.000     0.000     0.000  2493.130
  MAY-03-2014 00:45:00      0.000     0.000     0.000  2493.130
  MAY-03-2014 01:00:00      0.022     0.000     0.077  2493.207
  MAY-03-2014 01:15:00      0.178     0.000     0.217  2493.347
  MAY-03-2014 01:30:00      0.384     0.000     0.330  2493.460
  MAY-03-2014 01:45:00      0.508     0.000     0.390  2493.520
  MAY-03-2014 02:00:00      0.564     0.000     0.417  2493.547
  MAY-03-2014 02:15:00      0.589     0.000     0.429  2493.559
  MAY-03-2014 02:30:00      0.600     0.000     0.434  2493.564
  MAY-03-2014 02:45:00      0.605     0.000     0.436  2493.566
  MAY-03-2014 03:00:00      0.607     0.000     0.437  2493.567
  MAY-03-2014 03:15:00      0.608     0.000     0.438  2493.568
  MAY-03-2014 03:30:00      0.608     0.000     0.438  2493.568
  MAY-03-2014 03:45:00      0.609     0.000     0.438  2493.568
  MAY-03-2014 04:00:00      0.609     0.000     0.438  2493.568
  MAY-03-2014 04:15:00      0.617     0.000     0.443  2493.573
  MAY-03-2014 04:30:00      0.683     0.000     0.475  2493.605
  MAY-03-2014 04:45:00      0.873     0.000     0.584  2493.714
  MAY-03-2014 05:00:00      0.969     0.000     0.609  2493.739
  MAY-03-2014 05:15:00      1.141     0.000     0.643  2493.773
  MAY-03-2014 05:30:00      1.321     0.000     0.663  2493.793
  MAY-03-2014 05:45:00      1.354     0.000     0.667  2493.797
  MAY-03-2014 06:00:00      1.345     0.000     0.666  2493.796
  MAY-03-2014 06:15:00      1.251     0.000     0.656  2493.785
  MAY-03-2014 06:30:00      1.374     0.000     0.669  2493.799
  MAY-03-2014 06:45:00      1.375     0.000     0.669  2493.799
  MAY-03-2014 07:00:00      1.375     0.000     0.669  2493.799
  MAY-03-2014 07:15:00      1.373     0.000     0.669  2493.799
  MAY-03-2014 07:30:00      1.213     0.000     0.651  2493.781
  MAY-03-2014 07:45:00      1.364     0.000     0.668  2493.798
  MAY-03-2014 08:00:00      1.201     0.000     0.650  2493.780
  MAY-03-2014 08:15:00      1.190     0.000     0.649  2493.779
  MAY-03-2014 08:30:00      1.178     0.000     0.648  2493.777
  MAY-03-2014 08:45:00      1.375     0.000     0.669  2493.799
  MAY-03-2014 09:00:00      1.372     0.000     0.669  2493.799
  MAY-03-2014 09:15:00      1.347     0.000     0.666  2493.796
  MAY-03-2014 09:30:00      1.322     0.000     0.663  2493.793
  MAY-03-2014 09:45:00      1.189     0.000     0.649  2493.779
  MAY-03-2014 10:00:00      1.202     0.000     0.650  2493.780
  MAY-03-2014 10:15:00      1.280     0.000     0.659  2493.789
  MAY-03-2014 10:30:00      1.395     0.000     0.672  2493.802
  MAY-03-2014 10:45:00      1.378     0.000     0.670  2493.800
  MAY-03-2014 11:00:00      1.323     0.000     0.664  2493.793
  MAY-03-2014 11:15:00      1.271     0.000     0.658  2493.788
  MAY-03-2014 11:30:00      1.220     0.000     0.652  2493.782
  MAY-03-2014 11:45:00      1.171     0.000     0.647  2493.777
  MAY-03-2014 12:00:00      1.124     0.000     0.640  2493.770
  MAY-03-2014 12:15:00      1.078     0.000     0.631  2493.761
  MAY-03-2014 12:30:00      1.036     0.000     0.623  2493.753
  MAY-03-2014 12:45:00      0.996     0.000     0.615  2493.745
  MAY-03-2014 13:00:00      0.958     0.000     0.606  2493.736
  MAY-03-2014 13:15:00      0.922     0.000     0.597  2493.727
  MAY-03-2014 13:30:00      0.890     0.000     0.589  2493.719
  MAY-03-2014 13:45:00      0.884     0.000     0.587  2493.717
  MAY-03-2014 14:00:00      0.796     0.000     0.538  2493.668
  MAY-03-2014 14:15:00      0.718     0.000     0.494  2493.624
  MAY-03-2014 14:30:00      0.675     0.000     0.471  2493.601
  MAY-03-2014 14:45:00      0.652     0.000     0.459  2493.589
  MAY-03-2014 15:00:00      0.640     0.000     0.453  2493.583
  MAY-03-2014 15:15:00      0.634     0.000     0.450  2493.580
  MAY-03-2014 15:30:00      0.630     0.000     0.449  2493.579
  MAY-03-2014 15:45:00      0.628     0.000     0.448  2493.577
  MAY-03-2014 16:00:00      0.627     0.000     0.447  2493.577
  MAY-03-2014 16:15:00      0.625     0.000     0.446  2493.576
  MAY-03-2014 16:30:00      0.624     0.000     0.446  2493.576
  MAY-03-2014 16:45:00      0.624     0.000     0.445  2493.575
[...]
  MAY-03-2014 17:15:00      0.622     2.391     0.448     0.676
  MAY-03-2014 17:30:00      0.622     2.390     0.448     0.676
  MAY-03-2014 17:45:00      0.621     2.390     0.448     0.675
  MAY-03-2014 18:00:00      0.620     2.389     0.447     0.675
  
  
  <<< Link C-11 >>>
  ----------------------------------------------------------------
                             Flow  Velocity     Depth  Capacity/
  Date        Time            CMS     m/sec    meters   Setting 
  ----------------------------------------------------------------
  MAY-03-2014 00:15:00      0.000     0.000     0.001     0.000
  MAY-03-2014 00:30:00      0.073     0.419     0.058     0.029
  MAY-03-2014 00:45:00      1.399     1.363     0.342     0.171
  MAY-03-2014 01:00:00      2.060     1.424     0.482     0.241
  MAY-03-2014 01:15:00      2.055     1.344     0.510     0.255
  MAY-03-2014 01:30:00      2.017     1.316     0.511     0.255
  MAY-03-2014 01:45:00      2.002     1.310     0.509     0.255
  MAY-03-2014 02:00:00      1.999     1.310     0.509     0.254
  MAY-03-2014 02:15:00      1.999     1.310     0.509     0.254
  MAY-03-2014 02:30:00      2.000     1.310     0.509     0.254
  MAY-03-2014 02:45:00      2.000     1.311     0.509     0.254
  MAY-03-2014 03:00:00      2.000     1.310     0.509     0.254
  MAY-03-2014 03:15:00      2.000     1.310     0.509     0.254
  MAY-03-2014 03:30:00      2.000     1.310     0.509     0.254
  MAY-03-2014 03:45:00      2.001     1.311     0.509     0.254
  MAY-03-2014 04:00:00      2.047     1.327     0.514     0.257
  MAY-03-2014 04:15:00      2.491     1.460     0.569     0.284
  MAY-03-2014 04:30:00      3.865     1.733     0.743     0.372
  MAY-03-2014 04:45:00      6.258     2.038     1.024     0.512
  MAY-03-2014 05:00:00      8.835     2.254     1.307     0.653
  MAY-03-2014 05:15:00     10.531     2.330     1.506     0.753
  MAY-03-2014 05:30:00     10.578     2.277     1.549     0.774
  MAY-03-2014 05:45:00      9.699     2.203     1.468     0.734
  MAY-03-2014 06:00:00      8.546     2.125     1.340     0.670
  MAY-03-2014 06:15:00      7.423     2.052     1.206     0.603
  MAY-03-2014 06:30:00      6.427     1.956     1.095     0.548
  MAY-03-2014 06:45:00      5.611     1.855     1.008     0.504
  MAY-03-2014 07:00:00      4.961     1.775     0.932     0.466
  MAY-03-2014 07:15:00      4.445     1.703     0.870     0.435
  MAY-03-2014 07:30:00      4.037     1.649     0.816     0.408
  MAY-03-2014 07:45:00      3.712     1.612     0.768     0.384
  MAY-03-2014 08:00:00      3.452     1.585     0.726     0.363
  MAY-03-2014 08:15:00      3.241     1.564     0.691     0.345
  MAY-03-2014 08:30:00      3.069     1.539     0.665     0.332
  MAY-03-2014 08:45:00      2.927     1.514     0.644     0.322
  MAY-03-2014 09:00:00      2.809     1.492     0.627     0.314
  MAY-03-2014 09:15:00      2.709     1.473     0.613     0.306
  MAY-03-2014 09:30:00      2.625     1.457     0.600     0.300
  MAY-03-2014 09:45:00      2.552     1.439     0.591     0.296
  MAY-03-2014 10:00:00      2.490     1.425     0.583     0.291
  MAY-03-2014 10:15:00      2.437     1.413     0.575     0.287
  MAY-03-2014 10:30:00      2.390     1.404     0.567     0.284
  MAY-03-2014 10:45:00      2.349     1.395     0.561     0.281
  MAY-03-2014 11:00:00      2.313     1.384     0.557     0.278
  MAY-03-2014 11:15:00      2.262     1.370     0.550     0.275
  MAY-03-2014 11:30:00      2.223     1.362     0.544     0.272
  MAY-03-2014 11:45:00      2.200     1.357     0.540     0.270
  MAY-03-2014 12:00:00      2.181     1.353     0.537     0.269
  MAY-03-2014 12:15:00      2.164     1.349     0.535     0.267
  MAY-03-2014 12:30:00      2.149     1.346     0.532     0.266
  MAY-03-2014 12:45:00      2.135     1.342     0.530     0.265
  MAY-03-2014 13:00:00      2.122     1.340     0.528     0.264
  MAY-03-2014 13:15:00      2.110     1.337     0.526     0.263
  MAY-03-2014 13:30:00      2.100     1.335     0.525     0.262
  MAY-03-2014 13:45:00      2.092     1.333     0.523     0.262
  MAY-03-2014 14:00:00      2.084     1.331     0.522     0.261
  MAY-03-2014 14:15:00      2.077     1.329     0.521     0.260
  MAY-03-2014 14:30:00      2.071     1.328     0.520     0.260
  MAY-03-2014 14:45:00      2.066     1.326     0.519     0.260
  MAY-03-2014 15:00:00      2.062     1.325     0.518     0.259
  MAY-03-2014 15:15:00      2.058     1.325     0.518     0.259
  MAY-03-2014 15:30:00      2.055     1.324     0.517     0.259
  MAY-03-2014 15:45:00      2.052     1.323     0.517     0.258
  MAY-03-2014 16:00:00      2.049     1.323     0.516     0.258
  MAY-03-2014 16:15:00      2.047     1.322     0.516     0.258
  MAY-03-2014 16:30:00      2.045     1.321     0.516     0.258
  MAY-03-2014 16:45:00      2.042     1.321     0.515     0.258
  MAY-03-2014 17:00:00      2.040     1.320     0.515     0.258
  MAY-03-2014 17:15:00      2.038     1.320     0.515     0.257
  MAY-03-2014 17:30:00      2.037     1.320     0.514     0.257
  MAY-03-2014 17:45:00      2.035     1.319     0.514     0.257
  MAY-03-2014 18:00:00      2.034     1.319     0.514     0.257
  
  
  <<< Link R-4 >>>
  ----------------------------------------------------------------
                             Flow  Velocity     Depth  Capacity/
  Date        Time            CMS     m/sec    meters   Setting 
  ----------------------------------------------------------------
  MAY-03-2014 00:15:00      0.000     0.000     0.000     1.000
  MAY-03-2014 00:30:00      0.002     0.000     0.009     1.000
  MAY-03-2014 00:45:00      0.352     0.000     0.270     1.000
  MAY-03-2014 01:00:00      0.675     0.000     0.474     1.000
  MAY-03-2014 01:15:00      0.744     0.000     0.534     1.000
  MAY-03-2014 01:30:00      0.748     0.000     0.542     1.000
  MAY-03-2014 01:45:00      0.744     0.000     0.541     1.000
  MAY-03-2014 02:00:00      0.743     0.000     0.540     1.000
  MAY-03-2014 02:15:00      0.743     0.000     0.540     1.000
  MAY-03-2014 02:30:00      0.743     0.000     0.540     1.000
  MAY-03-2014 02:45:00      0.743     0.000     0.540     1.000
  MAY-03-2014 03:00:00      0.743     0.000     0.540     1.000
  MAY-03-2014 03:15:00      0.743     0.000     0.540     1.000
  MAY-03-2014 03:30:00      0.743     0.000     0.540     1.000
  MAY-03-2014 03:45:00      0.743     0.000     0.540     1.000
  MAY-03-2014 04:00:00      0.754     0.000     0.544     1.000
  MAY-03-2014 04:15:00      0.869     0.000     0.582     1.000
  MAY-03-2014 04:30:00      1.283     0.000     0.724     1.000
  MAY-03-2014 04:45:00      2.103     0.000     0.986     1.000
  MAY-03-2014 05:00:00      3.038     0.000     1.263     1.000
  MAY-03-2014 05:15:00      3.757     0.000     1.485     1.000
  MAY-03-2014 05:30:00      3.902     0.000     1.559     1.000
  MAY-03-2014 05:45:00      3.611     0.000     1.490     1.000
  MAY-03-2014 06:00:00      3.198     0.000     1.367     1.000
  MAY-03-2014 06:15:00      2.746     0.000     1.229     1.000
  MAY-03-2014 06:30:00      2.420     0.000     1.126     1.000
  MAY-03-2014 06:45:00      2.169     0.000     1.050     1.000
  MAY-03-2014 07:00:00      1.943     0.000     0.977     1.000
  MAY-03-2014 07:15:00      1.768     0.000     0.920     1.000
  MAY-03-2014 07:30:00      1.599     0.000     0.865     1.000
  MAY-03-2014 07:45:00      1.440     0.000     0.811     1.000
  MAY-03-2014 08:00:00      1.305     0.000     0.763     1.000
  MAY-03-2014 08:15:00      1.190     0.000     0.722     1.000
  MAY-03-2014 08:30:00      1.120     0.000     0.693     1.000
  MAY-03-2014 08:45:00      1.067     0.000     0.673     1.000
  MAY-03-2014 09:00:00      1.023     0.000     0.656     1.000
  MAY-03-2014 09:15:00      0.987     0.000     0.641     1.000
  MAY-03-2014 09:30:00      0.955     0.000     0.629     1.000
  MAY-03-2014 09:45:00      0.937     0.000     0.621     1.000
  MAY-03-2014 10:00:00      0.916     0.000     0.613     1.000
  MAY-03-2014 10:15:00      0.896     0.000     0.605     1.000
  MAY-03-2014 10:30:00      0.879     0.000     0.598     1.000
  MAY-03-2014 10:45:00      0.864     0.000     0.592     1.000
  MAY-03-2014 11:00:00      0.857     0.000     0.588     1.000
  MAY-03-2014 11:15:00      0.842     0.000     0.583     1.000
  MAY-03-2014 11:30:00      0.827     0.000     0.577     1.000
  MAY-03-2014 11:45:00      0.818     0.000     0.572     1.000
  MAY-03-2014 12:00:00      0.810     0.000     0.569     1.000
  MAY-03-2014 12:15:00      0.804     0.000     0.567     1.000
  MAY-03-2014 12:30:00      0.798     0.000     0.564     1.000
  MAY-03-2014 12:45:00      0.793     0.000     0.562     1.000
  MAY-03-2014 13:00:00      0.788     0.000     0.560     1.000
  MAY-03-2014 13:15:00      0.784     0.000     0.558     1.000
  MAY-03-2014 13:30:00      0.780     0.000     0.556     1.000
  MAY-03-2014 13:45:00      0.777     0.000     0.555     1.000
  MAY-03-2014 14:00:00      0.774     0.000     0.554     1.000
  MAY-03-2014 14:15:00      0.772     0.000     0.553     1.000
  MAY-03-2014 14:30:00      0.769     0.000     0.552     1.000
  MAY-03-2014 14:45:00      0.767     0.000     0.551     1.000
  MAY-03-2014 15:00:00      0.766     0.000     0.550     1.000
  MAY-03-2014 15:15:00      0.764     0.000     0.550     1.000
  MAY-03-2014 15:30:00      0.763     0.000     0.549     1.000
  MAY-03-2014 15:45:00      0.762     0.000     0.549     1.000
  MAY-03-2014 16:00:00      0.761     0.000     0.548     1.000
  MAY-03-2014 16:15:00      0.760     0.000     0.548     1.000
  MAY-03-2014 16:30:00      0.759     0.000     0.547     1.000
  MAY-03-2014 16:45:00      0.759     0.000     0.547     1.000
  MAY-03-2014 17:00:00      0.758     0.000     0.547     1.000
  MAY-03-2014 17:15:00      0.757     0.000     0.546     1.000
  MAY-03-2014 17:30:00      0.756     0.000     0.546     1.000
  MAY-03-2014 17:45:00      0.756     0.000     0.546     1.000
  MAY-03-2014 18:00:00      0.755     0.000     0.546     1.000
  
  
  <<< Link R-5 >>>
  ----------------------------------------------------------------
                             Flow  Velocity     Depth  Capacity/
  Date        Time            CMS     m/sec    meters   Setting 
  ----------------------------------------------------------------
  MAY-03-2014 00:15:00      0.000     0.000     0.000     1.000
  MAY-03-2014 00:30:00      0.002     0.000     0.009     1.000
  MAY-03-2014 00:45:00      0.360     0.000     0.270     1.000
  MAY-03-2014 01:00:00      0.665     0.000     0.474     1.000
  MAY-03-2014 01:15:00      0.672     0.000     0.534     1.000
  MAY-03-2014 01:30:00      0.655     0.000     0.542     1.000
  MAY-03-2014 01:45:00      0.649     0.000     0.541     1.000
  MAY-03-2014 02:00:00      0.648     0.000     0.540     1.000
  MAY-03-2014 02:15:00      0.648     0.000     0.540     1.000
  MAY-03-2014 02:30:00      0.648     0.000     0.540     1.000
  MAY-03-2014 02:45:00      0.648     0.000     0.540     1.000
  MAY-03-2014 03:00:00      0.648     0.000     0.540     1.000
  MAY-03-2014 03:15:00      0.648     0.000     0.540     1.000
  MAY-03-2014 03:30:00      0.648     0.000     0.540     1.000
  MAY-03-2014 03:45:00      0.648     0.000     0.540     1.000
  MAY-03-2014 04:00:00      0.660     0.000     0.544     1.000
  MAY-03-2014 04:15:00      0.781     0.000     0.582     1.000
  MAY-03-2014 04:30:00      1.194     0.000     0.724     1.000
  MAY-03-2014 04:45:00      1.976     0.000     0.986     1.000
  MAY-03-2014 05:00:00      2.812     0.000     1.263     1.000
  MAY-03-2014 05:15:00      3.379     0.000     1.485     1.000
  MAY-03-2014 05:30:00      3.391     0.000     1.559     1.000
  MAY-03-2014 05:45:00      3.185     0.000     1.490     1.000
  MAY-03-2014 06:00:00      2.831     0.000     1.367     1.000
  MAY-03-2014 06:15:00      2.476     0.000     1.229     1.000
  MAY-03-2014 06:30:00      2.190     0.000     1.126     1.000
  MAY-03-2014 06:45:00      1.966     0.000     1.050     1.000
  MAY-03-2014 07:00:00      1.763     0.000     0.977     1.000
  MAY-03-2014 07:15:00      1.604     0.000     0.920     1.000
  MAY-03-2014 07:30:00      1.450     0.000     0.865     1.000
  MAY-03-2014 07:45:00      1.305     0.000     0.811     1.000
  MAY-03-2014 08:00:00      1.181     0.000     0.763     1.000
  MAY-03-2014 08:15:00      1.077     0.000     0.722     1.000
  MAY-03-2014 08:30:00      1.013     0.000     0.693     1.000
  MAY-03-2014 08:45:00      0.964     0.000     0.673     1.000
  MAY-03-2014 09:00:00      0.925     0.000     0.656     1.000
  MAY-03-2014 09:15:00      0.891     0.000     0.641     1.000
  MAY-03-2014 09:30:00      0.863     0.000     0.629     1.000
  MAY-03-2014 09:45:00      0.846     0.000     0.621     1.000
  MAY-03-2014 10:00:00      0.827     0.000     0.613     1.000
  MAY-03-2014 10:15:00      0.809     0.000     0.605     1.000
  MAY-03-2014 10:30:00      0.793     0.000     0.598     1.000
  MAY-03-2014 10:45:00      0.779     0.000     0.592     1.000
  MAY-03-2014 11:00:00      0.752     0.000     0.588     1.000
  MAY-03-2014 11:15:00      0.735     0.000     0.583     1.000
  MAY-03-2014 11:30:00      0.722     0.000     0.577     1.000
  MAY-03-2014 11:45:00      0.714     0.000     0.572     1.000
  MAY-03-2014 12:00:00      0.708     0.000     0.569     1.000
  MAY-03-2014 12:15:00      0.702     0.000     0.567     1.000
  MAY-03-2014 12:30:00      0.697     0.000     0.564     1.000
  MAY-03-2014 12:45:00      0.693     0.000     0.562     1.000
  MAY-03-2014 13:00:00      0.688     0.000     0.560     1.000
  MAY-03-2014 13:15:00      0.685     0.000     0.558     1.000
  MAY-03-2014 13:30:00      0.681     0.000     0.556     1.000
  MAY-03-2014 13:45:00      0.678     0.000     0.555     1.000
  MAY-03-2014 14:00:00      0.676     0.000     0.554     1.000
  MAY-03-2014 14:15:00      0.674     0.000     0.553     1.000
  MAY-03-2014 14:30:00      0.672     0.000     0.552     1.000
  MAY-03-2014 14:45:00      0.670     0.000     0.551     1.000
  MAY-03-2014 15:00:00      0.668     0.000     0.550     1.000
  MAY-03-2014 15:15:00      0.667     0.000     0.550     1.000
  MAY-03-2014 15:30:00      0.666     0.000     0.549     1.000
  MAY-03-2014 15:45:00      0.665     0.000     0.549     1.000
  MAY-03-2014 16:00:00      0.664     0.000     0.548     1.000
  MAY-03-2014 16:15:00      0.664     0.000     0.548     1.000
  MAY-03-2014 16:30:00      0.663     0.000     0.547     1.000
  MAY-03-2014 16:45:00      0.662     0.000     0.547     1.000
  MAY-03-2014 17:00:00      0.661     0.000     0.547     1.000
  MAY-03-2014 17:15:00      0.661     0.000     0.546     1.000
  MAY-03-2014 17:30:00      0.660     0.000     0.546     1.000
  MAY-03-2014 17:45:00      0.660     0.000     0.546     1.000
  MAY-03-2014 18:00:00      0.659     0.000     0.546     1.000
  
  
  <<< Link R-6 >>>
  ----------------------------------------------------------------
                             Flow  Velocity     Depth  Capacity/
  Date        Time            CMS     m/sec    meters   Setting 
  ----------------------------------------------------------------
  MAY-03-2014 00:15:00      0.000     0.000     0.000     1.000
  MAY-03-2014 00:30:00      0.002     0.000     0.009     1.000
  MAY-03-2014 00:45:00      0.323     0.000     0.270     1.000
  MAY-03-2014 01:00:00      0.564     0.000     0.474     1.000
  MAY-03-2014 01:15:00      0.611     0.000     0.534     1.000
  MAY-03-2014 01:30:00      0.613     0.000     0.542     1.000
  MAY-03-2014 01:45:00      0.610     0.000     0.541     1.000
  MAY-03-2014 02:00:00      0.609     0.000     0.540     1.000
  MAY-03-2014 02:15:00      0.609     0.000     0.540     1.000
  MAY-03-2014 02:30:00      0.609     0.000     0.540     1.000
  MAY-03-2014 02:45:00      0.609     0.000     0.540     1.000
  MAY-03-2014 03:00:00      0.609     0.000     0.540     1.000
  MAY-03-2014 03:15:00      0.609     0.000     0.540     1.000
  MAY-03-2014 03:30:00      0.609     0.000     0.540     1.000
  MAY-03-2014 03:45:00      0.609     0.000     0.540     1.000
  MAY-03-2014 04:00:00      0.619     0.000     0.544     1.000
  MAY-03-2014 04:15:00      0.729     0.000     0.582     1.000
  MAY-03-2014 04:30:00      1.105     0.000     0.724     1.000
  MAY-03-2014 04:45:00      1.826     0.000     0.986     1.000
  MAY-03-2014 05:00:00      2.627     0.000     1.263     1.000
  MAY-03-2014 05:15:00      3.196     0.000     1.485     1.000
  MAY-03-2014 05:30:00      3.286     0.000     1.559     1.000
  MAY-03-2014 05:45:00      3.042     0.000     1.490     1.000
  MAY-03-2014 06:00:00      2.698     0.000     1.367     1.000
  MAY-03-2014 06:15:00      2.358     0.000     1.229     1.000
  MAY-03-2014 06:30:00      1.903     0.000     1.126     1.000
  MAY-03-2014 06:45:00      1.579     0.000     1.050     1.000
  MAY-03-2014 07:00:00      1.336     0.000     0.977     1.000
  MAY-03-2014 07:15:00      1.143     0.000     0.920     1.000
  MAY-03-2014 07:30:00      1.059     0.000     0.865     1.000
  MAY-03-2014 07:45:00      1.033     0.000     0.811     1.000
  MAY-03-2014 08:00:00      1.023     0.000     0.763     1.000
  MAY-03-2014 08:15:00      1.022     0.000     0.722     1.000
  MAY-03-2014 08:30:00      0.966     0.000     0.693     1.000
  MAY-03-2014 08:45:00      0.919     0.000     0.673     1.000
  MAY-03-2014 09:00:00      0.881     0.000     0.656     1.000
  MAY-03-2014 09:15:00      0.848     0.000     0.641     1.000
  MAY-03-2014 09:30:00      0.821     0.000     0.629     1.000
  MAY-03-2014 09:45:00      0.777     0.000     0.621     1.000
  MAY-03-2014 10:00:00      0.758     0.000     0.613     1.000
  MAY-03-2014 10:15:00      0.741     0.000     0.605     1.000
  MAY-03-2014 10:30:00      0.726     0.000     0.598     1.000
  MAY-03-2014 10:45:00      0.713     0.000     0.592     1.000
  MAY-03-2014 11:00:00      0.708     0.000     0.588     1.000
  MAY-03-2014 11:15:00      0.694     0.000     0.583     1.000
  MAY-03-2014 11:30:00      0.681     0.000     0.577     1.000
  MAY-03-2014 11:45:00      0.673     0.000     0.572     1.000
  MAY-03-2014 12:00:00      0.667     0.000     0.569     1.000
  MAY-03-2014 12:15:00      0.661     0.000     0.567     1.000
  MAY-03-2014 12:30:00      0.656     0.000     0.564     1.000
  MAY-03-2014 12:45:00      0.652     0.000     0.562     1.000
  MAY-03-2014 13:00:00      0.648     0.000     0.560     1.000
  MAY-03-2014 13:15:00      0.644     0.000     0.558     1.000
  MAY-03-2014 13:30:00      0.641     0.000     0.556     1.000
  MAY-03-2014 13:45:00      0.638     0.000     0.555     1.000
  MAY-03-2014 14:00:00      0.636     0.000     0.554     1.000
  MAY-03-2014 14:15:00      0.633     0.000     0.553     1.000
  MAY-03-2014 14:30:00      0.631     0.000     0.552     1.000
  MAY-03-2014 14:45:00      0.630     0.000     0.551     1.000
  MAY-03-2014 15:00:00      0.628     0.000     0.550     1.000
  MAY-03-2014 15:15:00      0.627     0.000     0.550     1.000
  MAY-03-2014 15:30:00      0.626     0.000     0.549     1.000
  MAY-03-2014 15:45:00      0.625     0.000     0.549     1.000
  MAY-03-2014 16:00:00      0.624     0.000     0.548     1.000
  MAY-03-2014 16:15:00      0.624     0.000     0.548     1.000
  MAY-03-2014 16:30:00      0.623     0.000     0.547     1.000
  MAY-03-2014 16:45:00      0.622     0.000     0.547     1.000
  MAY-03-2014 17:00:00      0.622     0.000     0.547     1.000
  MAY-03-2014 17:15:00      0.621     0.000     0.546     1.000
  MAY-03-2014 17:30:00      0.620     0.000     0.546     1.000
  MAY-03-2014 17:45:00      0.620     0.000     0.546     1.000
  MAY-03-2014 18:00:00      0.619     0.000     0.546     1.000
  

  Analysis begun on:  Mon Feb 22 17:19:22 2016
  Analysis ended on:  Mon Feb 22 17:19:23 2016
  Total elapsed time: 00:00:01