
  EPA STORM WATER MANAGEMENT MODEL - VERSION 5.1 (Build 5.1.009)
  --------------------------------------------------------------

  
  *********************************************************
  NOTE: The summary statistics displayed in this report are
  based on results found at every computational time step,  
  not just on results from each reporting time step.
  *********************************************************
  
  ****************
  Analysis Options
  ****************
  Flow Units ............... CMS
  Process Models:
    Rainfall/Runoff ........ YES
    RDII ................... NO
    Snowmelt ............... NO
    Groundwater ............ NO
    Flow Routing ........... YES
    Ponding Allowed ........ NO
    Water Quality .......... NO
  Infiltration Method ...... HORTON
  Flow Routing Method ...... DYNWAVE
  Starting Date ............ MAY-03-2014 00:00:00
  Ending Date .............. MAY-03-2014 18:00:00
  Antecedent Dry Days ...... 0.0
  Report Time Step ......... 00:15:00
  Wet Time Step ............ 00:05:00
  Dry Time Step ............ 01:00:00
  Routing Time Step ........ 30.00 sec
  Variable Time Step ....... YES
  Maximum Trials ........... 8
  Number of Threads ........ 1
  Head Tolerance ........... 0.001524 m
  
  
  **************************        Volume         Depth
  Runoff Quantity Continuity     hectare-m            mm
  **************************     ---------       -------
  Total Precipitation ......         9.291        30.644
  Evaporation Loss .........         0.000         0.000
  Infiltration Loss ........         1.890         6.232
  Surface Runoff ...........         7.152        23.588
  Final Storage ............         0.258         0.851
  Continuity Error (%) .....        -0.089
  
  
  **************************        Volume        Volume
  Flow Routing Continuity        hectare-m      10^6 ltr
  **************************     ---------     ---------
  Dry Weather Inflow .......         0.000         0.000
  Wet Weather Inflow .......         7.152        71.516
  Groundwater Inflow .......         0.000         0.000
  RDII Inflow ..............         0.000         0.000
  External Inflow ..........        12.959       129.586
  External Outflow .........        17.488       174.880
  Flooding Loss ............         1.373        13.733
  Evaporation Loss .........         0.000         0.000
  Exfiltration Loss ........         0.000         0.000
  Initial Stored Volume ....         0.000         0.001
  Final Stored Volume ......         1.210        12.100
  Continuity Error (%) .....         0.194
  
  
  *************************
  Highest Continuity Errors
  *************************
  Node N-13 (2.53%)
  Node V-2 (-1.64%)
  Node N-15 (1.60%)
  
  
  ***************************
  Time-Step Critical Elements
  ***************************
  None
  
  
  ********************************
  Highest Flow Instability Indexes
  ********************************
  Link C-10 (28)
  Link C-9 (17)
  Link C-7 (6)
  Link R-6 (5)
  Link C-11 (5)
  
  
  *************************
  Routing Time Step Summary
  *************************
  Minimum Time Step           :    14.12 sec
  Average Time Step           :    29.97 sec
  Maximum Time Step           :    30.00 sec
  Percent in Steady State     :     0.00
  Average Iterations per Step :     2.23
  Percent Not Converging      :     0.09
  
  
  ***************************
  Subcatchment Runoff Summary
  ***************************
  
  --------------------------------------------------------------------------------------------------------
                            Total      Total      Total      Total      Total       Total     Peak  Runoff
                           Precip      Runon       Evap      Infil     Runoff      Runoff   Runoff   Coeff
  Subcatchment                 mm         mm         mm         mm         mm    10^6 ltr      CMS
  --------------------------------------------------------------------------------------------------------
  C-2                       26.96       0.00       0.00      13.76      11.77       11.53     2.48   0.437
  C-3                       40.08       0.00       0.00       5.06      34.55       27.71     5.63   0.862
  C-4                       26.96       0.00       0.00       1.02      25.33       30.40     5.66   0.940
  C-5                       40.07       0.00       0.00       2.56      37.59        1.88     0.60   0.938
  
  
  ******************
  Node Depth Summary
  ******************
  
  ---------------------------------------------------------------------------------
                                 Average  Maximum  Maximum  Time of Max    Reported
                                   Depth    Depth      HGL   Occurrence   Max Depth
  Node                 Type       Meters   Meters   Meters  days hr:min      Meters
  ---------------------------------------------------------------------------------
  N-5                  JUNCTION     0.24     0.55  2500.55     0  05:03        0.17
  N-6                  JUNCTION     0.32     1.24  2500.23     0  05:27        0.38
  N-7                  JUNCTION     0.62     1.59  2500.23     0  05:30        0.49
  N-9                  JUNCTION     0.69     1.98  2499.98     0  05:28        0.59
  N-13                 JUNCTION     0.59     1.78  2499.78     0  05:41        0.52
  N-14                 JUNCTION     0.49     0.89  2498.89     0  05:38        0.27
  N-15                 JUNCTION     0.61     1.74  2499.74     0  05:28        0.50
  DES-1                OUTFALL      0.52     0.76  2492.76     0  07:34        0.23
  DES-2                OUTFALL      0.53     0.65  2494.28     0  05:14        0.20
  DES-3                OUTFALL      0.52     0.70  2493.83     0  05:43        0.20
  V-1                  STORAGE      0.63     1.36  2494.36     0  07:32        0.41
  V-2                  STORAGE      1.75     4.00  2498.28     0  05:38        1.22
  V-3                  STORAGE      1.65     4.50  2498.78     0  05:59        1.37
  
  
  *******************
  Node Inflow Summary
  *******************
  
  -------------------------------------------------------------------------------------------------
                                  Maximum  Maximum                  Lateral       Total        Flow
                                  Lateral    Total  Time of Max      Inflow      Inflow     Balance
                                   Inflow   Inflow   Occurrence      Volume      Volume       Error
  Node                 Type           CMS      CMS  days hr:min    10^6 ltr    10^6 ltr     Percent
  -------------------------------------------------------------------------------------------------
  N-5                  JUNCTION    11.226   11.226     0  04:55         190         190       0.716
  N-6                  JUNCTION     2.484   13.353     0  04:59        11.5         200       1.000
  N-7                  JUNCTION     0.000   10.819     0  05:18           0         198       0.780
  N-9                  JUNCTION     0.000   10.641     0  05:15           0         196       0.313
  N-13                 JUNCTION     0.000    4.862     0  05:28           0        68.1       2.596
  N-14                 JUNCTION     0.000    7.560     0  05:28           0        64.5       0.659
  N-15                 JUNCTION     0.000    4.683     0  05:27           0        63.1       1.627
  DES-1                OUTFALL      0.000    1.709     0  07:34           0        61.1       0.000
  DES-2                OUTFALL      0.000    1.407     0  06:36           0        57.3       0.000
  DES-3                OUTFALL      0.000    1.478     0  06:25           0        56.5       0.000
  V-1                  STORAGE      0.000    2.336     0  05:38           0          64       0.381
  V-2                  STORAGE      0.000    4.019     0  05:35           0        66.4      -1.616
  V-3                  STORAGE      0.000    3.881     0  05:29           0        62.1       0.272
  
  
  **********************
  Node Surcharge Summary
  **********************
  
  Surcharging occurs when water rises above the top of the highest conduit.
  ---------------------------------------------------------------------
                                               Max. Height   Min. Depth
                                   Hours       Above Crown    Below Rim
  Node                 Type      Surcharged         Meters       Meters
  ---------------------------------------------------------------------
  V-2                  STORAGE         2.20          0.000        0.000
  V-3                  STORAGE         1.20          0.000        0.000
  
  
  *********************
  Node Flooding Summary
  *********************
  
  Flooding refers to all water that overflows a node, whether it ponds or not.
  --------------------------------------------------------------------------
                                                             Total   Maximum
                                 Maximum   Time of Max       Flood    Ponded
                        Hours       Rate    Occurrence      Volume     Depth
  Node                 Flooded       CMS   days hr:min    10^6 ltr    Meters
  --------------------------------------------------------------------------
  V-2                     2.19     2.391      0  05:38       9.342     0.000
  V-3                     1.20     2.044      0  05:59       4.392     0.000
  
  
  **********************
  Storage Volume Summary
  **********************
  
  --------------------------------------------------------------------------------------------------
                         Average     Avg  Evap Exfil       Maximum     Max    Time of Max    Maximum
                          Volume    Pcnt  Pcnt  Pcnt        Volume    Pcnt     Occurrence    Outflow
  Storage Unit           1000 m3    Full  Loss  Loss       1000 m3    Full    days hr:min        CMS
  --------------------------------------------------------------------------------------------------
  V-1                      3.463      13     0     0         7.483      27       0  07:32      1.709
  V-2                      3.150      44     0     0         7.200     100       0  05:38      1.407
  V-3                      3.628      37     0     0         9.900     100       0  05:59      1.478
  
  
  ***********************
  Outfall Loading Summary
  ***********************
  
  -----------------------------------------------------------
                         Flow       Avg       Max       Total
                         Freq      Flow      Flow      Volume
  Outfall Node           Pcnt       CMS       CMS    10^6 ltr
  -----------------------------------------------------------
  DES-1                 95.61     0.987     1.709      61.123
  DES-2                 95.79     0.922     1.407      57.252
  DES-3                 95.84     0.910     1.478      56.505
  -----------------------------------------------------------
  System                95.74     2.819     4.439     174.880
  
  
  ********************
  Link Flow Summary
  ********************
  
  -----------------------------------------------------------------------------
                                 Maximum  Time of Max   Maximum    Max/    Max/
                                  |Flow|   Occurrence   |Veloc|    Full    Full
  Link                 Type          CMS  days hr:min     m/sec    Flow   Depth
  -----------------------------------------------------------------------------
  C-1                  CONDUIT    11.022     0  05:03      1.29    0.04    0.20
  C-2                  CONDUIT    10.819     0  05:18      0.71    0.04    0.33
  C-5                  CONDUIT     2.336     0  05:38      2.48    0.59    0.56
  C-6                  CONDUIT     4.019     0  05:35      2.42    1.26    1.00
  C-7                  CONDUIT     3.881     0  05:29      2.44    1.34    1.00
  C-8                  CONDUIT     1.709     0  07:34      2.78    1.27    0.92
  C-9                  CONDUIT     1.407     0  06:36      4.26    1.92    1.00
  C-10                 CONDUIT     1.478     0  06:25      3.86    1.74    1.00
  C-11                 CONDUIT    10.641     0  05:15      2.21    0.91    0.89
  R-4                  ORIFICE     7.560     0  05:28                      0.96
  R-5                  ORIFICE     4.862     0  05:28                      0.99
  R-6                  ORIFICE     4.683     0  05:27                      0.99
  
  
  ***************************
  Flow Classification Summary
  ***************************
  
  -------------------------------------------------------------------------------------
                      Adjusted    ---------- Fraction of Time in Flow Class ---------- 
                       /Actual         Up    Down  Sub   Sup   Up    Down  Norm  Inlet 
  Conduit               Length    Dry  Dry   Dry   Crit  Crit  Crit  Crit  Ltd   Ctrl  
  -------------------------------------------------------------------------------------
  C-1                     1.00   0.00  0.00  0.00  1.00  0.00  0.00  0.00  0.36  0.00
  C-2                     1.00   0.00  0.00  0.00  1.00  0.00  0.00  0.00  0.59  0.00
  C-5                     1.00   0.02  0.00  0.00  0.00  0.00  0.00  0.98  0.00  0.00
  C-6                     1.00   0.02  0.00  0.00  0.30  0.00  0.00  0.68  0.23  0.00
  C-7                     1.00   0.02  0.00  0.00  0.22  0.00  0.00  0.76  0.07  0.00
  C-8                     1.00   0.04  0.00  0.00  0.34  0.62  0.00  0.00  0.00  0.00
  C-9                     1.00   0.03  0.00  0.00  0.61  0.36  0.00  0.00  0.00  0.00
  C-10                    1.00   0.03  0.00  0.00  0.52  0.44  0.00  0.00  0.00  0.00
  C-11                    1.00   0.01  0.00  0.00  0.99  0.00  0.00  0.00  0.81  0.00
  
  
  *************************
  Conduit Surcharge Summary
  *************************
  
  ----------------------------------------------------------------------------
                                                           Hours        Hours 
                         --------- Hours Full --------   Above Full   Capacity
  Conduit                Both Ends  Upstream  Dnstream   Normal Flow   Limited
  ----------------------------------------------------------------------------
  C-6                         0.47      0.79      2.34      1.18         0.47
  C-7                         0.15      0.84      1.19      1.16         0.15
  C-8                         0.01      3.96      0.01      4.90         0.01
  C-9                         2.25     10.17      2.25     10.83         2.25
  C-10                        2.73      8.75      2.73      9.17         2.73
  
  
  ********************
  Subcatchment Results
  ********************
  
  <<< Subcatchment C-2 >>>
  ---------------------------------------------------
  Date        Time        Precip.    Losses    Runoff
                            mm/hr     mm/hr       CMS
  ---------------------------------------------------
  MAY-03-2014 00:15:00      0.000     0.000    0.0000
  MAY-03-2014 00:30:00      0.000     0.000    0.0000
  MAY-03-2014 00:45:00      0.000     0.000    0.0000
  MAY-03-2014 01:00:00      0.000     0.000    0.0000
  MAY-03-2014 01:15:00      0.000     0.000    0.0000
  MAY-03-2014 01:30:00      0.000     0.000    0.0000
  MAY-03-2014 01:45:00      0.000     0.000    0.0000
  MAY-03-2014 02:00:00      0.000     0.000    0.0000
  MAY-03-2014 02:15:00      0.000     0.000    0.0000
  MAY-03-2014 02:30:00      0.000     0.000    0.0000
  MAY-03-2014 02:45:00      0.000     0.000    0.0000
  MAY-03-2014 03:00:00      0.000     0.000    0.0000
  MAY-03-2014 03:15:00      0.000     0.000    0.0000
  MAY-03-2014 03:30:00      0.000     0.000    0.0000
  MAY-03-2014 03:45:00      0.000     0.000    0.0000
  MAY-03-2014 04:00:00      0.000     0.000    0.0000
  MAY-03-2014 04:15:00      9.900     5.236    0.0397
  MAY-03-2014 04:30:00     25.900     3.479    0.4161
  MAY-03-2014 04:45:00     43.000     2.413    1.4057
  MAY-03-2014 05:00:00     24.000     1.767    2.3479
  MAY-03-2014 05:15:00      4.800     1.374    1.7624
  MAY-03-2014 05:30:00      0.000     1.137    1.0978
  MAY-03-2014 05:45:00      0.000     0.992    0.7515
  MAY-03-2014 06:00:00      0.000     0.905    0.5838
  MAY-03-2014 06:15:00      0.000     0.852    0.4840
  MAY-03-2014 06:30:00      0.000     0.820    0.4157
  MAY-03-2014 06:45:00      0.000     0.800    0.3647
  MAY-03-2014 07:00:00      0.000     0.788    0.3240
  MAY-03-2014 07:15:00      0.000     0.781    0.2902
  MAY-03-2014 07:30:00      0.000     0.777    0.2612
  MAY-03-2014 07:45:00      0.000     0.774    0.2359
  MAY-03-2014 08:00:00      0.000     0.772    0.2136
  MAY-03-2014 08:15:00      0.000     0.771    0.1935
  MAY-03-2014 08:30:00      0.000     0.771    0.1754
  MAY-03-2014 08:45:00      0.000     0.771    0.1589
  MAY-03-2014 09:00:00      0.000     0.770    0.1439
  MAY-03-2014 09:15:00      0.000     0.770    0.1302
  MAY-03-2014 09:30:00      0.000     0.770    0.1176
  MAY-03-2014 09:45:00      0.000     0.770    0.1060
  MAY-03-2014 10:00:00      0.000     0.770    0.0953
  MAY-03-2014 10:15:00      0.000     0.770    0.0854
  MAY-03-2014 10:30:00      0.000     0.770    0.0763
  MAY-03-2014 10:45:00      0.000     0.770    0.0679
  MAY-03-2014 11:00:00      0.000     0.770    0.0601
  MAY-03-2014 11:15:00      0.000     0.770    0.0530
  MAY-03-2014 11:30:00      0.000     0.770    0.0463
  MAY-03-2014 11:45:00      0.000     0.770    0.0402
  MAY-03-2014 12:00:00      0.000     0.770    0.0346
  MAY-03-2014 12:15:00      0.000     0.770    0.0295
  MAY-03-2014 12:30:00      0.000     0.770    0.0248
  MAY-03-2014 12:45:00      0.000     0.770    0.0205
  MAY-03-2014 13:00:00      0.000     0.770    0.0167
  MAY-03-2014 13:15:00      0.000     0.770    0.0132
  MAY-03-2014 13:30:00      0.000     0.770    0.0102
  MAY-03-2014 13:45:00      0.000     0.770    0.0075
  MAY-03-2014 14:00:00      0.000     0.770    0.0000
  MAY-03-2014 14:15:00      0.000     0.770    0.0000
  MAY-03-2014 14:30:00      0.000     0.770    0.0000
  MAY-03-2014 14:45:00      0.000     0.770    0.0000
  MAY-03-2014 15:00:00      0.000     0.770    0.0000
  MAY-03-2014 15:15:00      0.000     0.770    0.0000
  MAY-03-2014 15:30:00      0.000     0.770    0.0000
  MAY-03-2014 15:45:00      0.000     0.770    0.0000
  MAY-03-2014 16:00:00      0.000     0.770    0.0000
  MAY-03-2014 16:15:00      0.000     0.770    0.0000
  MAY-03-2014 16:30:00      0.000     0.770    0.0000
  MAY-03-2014 16:45:00      0.000     0.770    0.0000
  MAY-03-2014 17:00:00      0.000     0.770    0.0000
  MAY-03-2014 17:15:00      0.000     0.770    0.0000
  MAY-03-2014 17:30:00      0.000     0.770    0.0000
  MAY-03-2014 17:45:00      0.000     0.770    0.0000
  MAY-03-2014 18:00:00      0.000     0.770    0.0000
  
  
  <<< Subcatchment C-3 >>>
  ---------------------------------------------------
  Date        Time        Precip.    Losses    Runoff
                            mm/hr     mm/hr       CMS
  ---------------------------------------------------
  MAY-03-2014 00:15:00      0.000     0.000    0.0000
  MAY-03-2014 00:30:00      0.000     0.000    0.0000
  MAY-03-2014 00:45:00      0.000     0.000    0.0000
  MAY-03-2014 01:00:00      0.000     0.000    0.0000
  MAY-03-2014 01:15:00      0.000     0.000    0.0000
  MAY-03-2014 01:30:00      0.000     0.000    0.0000
  MAY-03-2014 01:45:00      0.000     0.000    0.0000
  MAY-03-2014 02:00:00      0.000     0.000    0.0000
  MAY-03-2014 02:15:00      0.000     0.000    0.0000
  MAY-03-2014 02:30:00      0.000     0.000    0.0000
  MAY-03-2014 02:45:00      0.000     0.000    0.0000
  MAY-03-2014 03:00:00      0.000     0.000    0.0000
  MAY-03-2014 03:15:00      0.000     0.000    0.0000
  MAY-03-2014 03:30:00      0.000     0.000    0.0000
  MAY-03-2014 03:45:00     15.500     1.801    0.0539
  MAY-03-2014 04:00:00     43.500     1.201    0.6505
  MAY-03-2014 04:15:00     53.800     0.836    2.9236
  MAY-03-2014 04:30:00     40.300     0.615    5.2425
  MAY-03-2014 04:45:00      6.900     0.482    5.0946
  MAY-03-2014 05:00:00      2.300     0.400    3.5440
  MAY-03-2014 05:15:00      0.000     0.351    2.5146
  MAY-03-2014 05:30:00      0.000     0.321    1.8447
  MAY-03-2014 05:45:00      0.000     0.303    1.4059
  MAY-03-2014 06:00:00      0.000     0.292    1.1031
  MAY-03-2014 06:15:00      0.000     0.285    0.8855
  MAY-03-2014 06:30:00      0.000     0.281    0.7239
  MAY-03-2014 06:45:00      0.000     0.279    0.6006
  MAY-03-2014 07:00:00      0.000     0.277    0.5044
  MAY-03-2014 07:15:00      0.000     0.276    0.4279
  MAY-03-2014 07:30:00      0.000     0.276    0.3662
  MAY-03-2014 07:45:00      0.000     0.276    0.3157
  MAY-03-2014 08:00:00      0.000     0.275    0.2738
  MAY-03-2014 08:15:00      0.000     0.275    0.2387
  MAY-03-2014 08:30:00      0.000     0.275    0.2091
  MAY-03-2014 08:45:00      0.000     0.275    0.1838
  MAY-03-2014 09:00:00      0.000     0.275    0.1622
  MAY-03-2014 09:15:00      0.000     0.275    0.1435
  MAY-03-2014 09:30:00      0.000     0.275    0.1272
  MAY-03-2014 09:45:00      0.000     0.275    0.1130
  MAY-03-2014 10:00:00      0.000     0.275    0.1006
  MAY-03-2014 10:15:00      0.000     0.275    0.0897
  MAY-03-2014 10:30:00      0.000     0.275    0.0801
  MAY-03-2014 10:45:00      0.000     0.275    0.0715
  MAY-03-2014 11:00:00      0.000     0.275    0.0640
  MAY-03-2014 11:15:00      0.000     0.275    0.0573
  MAY-03-2014 11:30:00      0.000     0.275    0.0514
  MAY-03-2014 11:45:00      0.000     0.275    0.0461
  MAY-03-2014 12:00:00      0.000     0.275    0.0414
  MAY-03-2014 12:15:00      0.000     0.275    0.0373
  MAY-03-2014 12:30:00      0.000     0.275    0.0338
  MAY-03-2014 12:45:00      0.000     0.275    0.0307
  MAY-03-2014 13:00:00      0.000     0.275    0.0281
  MAY-03-2014 13:15:00      0.000     0.275    0.0261
  MAY-03-2014 13:30:00      0.000     0.275    0.0245
  MAY-03-2014 13:45:00      0.000     0.275    0.0230
  MAY-03-2014 14:00:00      0.000     0.275    0.0216
  MAY-03-2014 14:15:00      0.000     0.275    0.0204
  MAY-03-2014 14:30:00      0.000     0.275    0.0193
  MAY-03-2014 14:45:00      0.000     0.275    0.0182
  MAY-03-2014 15:00:00      0.000     0.275    0.0172
  MAY-03-2014 15:15:00      0.000     0.275    0.0163
  MAY-03-2014 15:30:00      0.000     0.275    0.0155
  MAY-03-2014 15:45:00      0.000     0.275    0.0147
  MAY-03-2014 16:00:00      0.000     0.275    0.0140
  MAY-03-2014 16:15:00      0.000     0.275    0.0133
  MAY-03-2014 16:30:00      0.000     0.275    0.0127
  MAY-03-2014 16:45:00      0.000     0.275    0.0121
  MAY-03-2014 17:00:00      0.000     0.275    0.0115
  MAY-03-2014 17:15:00      0.000     0.275    0.0110
  MAY-03-2014 17:30:00      0.000     0.275    0.0105
  MAY-03-2014 17:45:00      0.000     0.275    0.0101
  MAY-03-2014 18:00:00      0.000     0.275    0.0096
  
  
  <<< Subcatchment C-4 >>>
  ---------------------------------------------------
  Date        Time        Precip.    Losses    Runoff
                            mm/hr     mm/hr       CMS
  ---------------------------------------------------
  MAY-03-2014 00:15:00      0.000     0.000    0.0000
  MAY-03-2014 00:30:00      0.000     0.000    0.0000
  MAY-03-2014 00:45:00      0.000     0.000    0.0000
  MAY-03-2014 01:00:00      0.000     0.000    0.0000
  MAY-03-2014 01:15:00      0.000     0.000    0.0000
  MAY-03-2014 01:30:00      0.000     0.000    0.0000
  MAY-03-2014 01:45:00      0.000     0.000    0.0000
  MAY-03-2014 02:00:00      0.000     0.000    0.0000
  MAY-03-2014 02:15:00      0.000     0.000    0.0000
  MAY-03-2014 02:30:00      0.000     0.000    0.0000
  MAY-03-2014 02:45:00      0.000     0.000    0.0000
  MAY-03-2014 03:00:00      0.000     0.000    0.0000
  MAY-03-2014 03:15:00      0.000     0.000    0.0000
  MAY-03-2014 03:30:00      0.000     0.000    0.0000
  MAY-03-2014 03:45:00      0.000     0.000    0.0000
  MAY-03-2014 04:00:00      0.000     0.000    0.0000
  MAY-03-2014 04:15:00      9.900     0.680    0.0429
  MAY-03-2014 04:30:00     25.900     0.452    0.5558
  MAY-03-2014 04:45:00     43.000     0.313    2.4692
  MAY-03-2014 05:00:00     24.000     0.229    5.3506
  MAY-03-2014 05:15:00      4.800     0.179    5.2627
  MAY-03-2014 05:30:00      0.000     0.148    3.9353
  MAY-03-2014 05:45:00      0.000     0.129    2.8528
  MAY-03-2014 06:00:00      0.000     0.118    2.1441
  MAY-03-2014 06:15:00      0.000     0.111    1.6581
  MAY-03-2014 06:30:00      0.000     0.106    1.3122
  MAY-03-2014 06:45:00      0.000     0.104    1.0586
  MAY-03-2014 07:00:00      0.000     0.102    0.8677
  MAY-03-2014 07:15:00      0.000     0.101    0.7210
  MAY-03-2014 07:30:00      0.000     0.101    0.6062
  MAY-03-2014 07:45:00      0.000     0.101    0.5149
  MAY-03-2014 08:00:00      0.000     0.100    0.4412
  MAY-03-2014 08:15:00      0.000     0.100    0.3811
  MAY-03-2014 08:30:00      0.000     0.100    0.3315
  MAY-03-2014 08:45:00      0.000     0.100    0.2902
  MAY-03-2014 09:00:00      0.000     0.100    0.2555
  MAY-03-2014 09:15:00      0.000     0.100    0.2262
  MAY-03-2014 09:30:00      0.000     0.100    0.2013
  MAY-03-2014 09:45:00      0.000     0.100    0.1801
  MAY-03-2014 10:00:00      0.000     0.100    0.1619
  MAY-03-2014 10:15:00      0.000     0.100    0.1465
  MAY-03-2014 10:30:00      0.000     0.000    0.1334
  MAY-03-2014 10:45:00      0.000     0.000    0.1219
  MAY-03-2014 11:00:00      0.000     0.000    0.1118
  MAY-03-2014 11:15:00      0.000     0.000    0.1028
  MAY-03-2014 11:30:00      0.000     0.000    0.0948
  MAY-03-2014 11:45:00      0.000     0.000    0.0876
  MAY-03-2014 12:00:00      0.000     0.000    0.0812
  MAY-03-2014 12:15:00      0.000     0.000    0.0754
  MAY-03-2014 12:30:00      0.000     0.000    0.0701
  MAY-03-2014 12:45:00      0.000     0.000    0.0654
  MAY-03-2014 13:00:00      0.000     0.000    0.0611
  MAY-03-2014 13:15:00      0.000     0.000    0.0572
  MAY-03-2014 13:30:00      0.000     0.000    0.0536
  MAY-03-2014 13:45:00      0.000     0.000    0.0504
  MAY-03-2014 14:00:00      0.000     0.000    0.0474
  MAY-03-2014 14:15:00      0.000     0.000    0.0446
  MAY-03-2014 14:30:00      0.000     0.000    0.0421
  MAY-03-2014 14:45:00      0.000     0.000    0.0397
  MAY-03-2014 15:00:00      0.000     0.000    0.0376
  MAY-03-2014 15:15:00      0.000     0.000    0.0356
  MAY-03-2014 15:30:00      0.000     0.000    0.0337
  MAY-03-2014 15:45:00      0.000     0.000    0.0320
  MAY-03-2014 16:00:00      0.000     0.000    0.0304
  MAY-03-2014 16:15:00      0.000     0.000    0.0289
  MAY-03-2014 16:30:00      0.000     0.000    0.0275
  MAY-03-2014 16:45:00      0.000     0.000    0.0262
  MAY-03-2014 17:00:00      0.000     0.000    0.0250
  MAY-03-2014 17:15:00      0.000     0.000    0.0239
  MAY-03-2014 17:30:00      0.000     0.000    0.0228
  MAY-03-2014 17:45:00      0.000     0.000    0.0218
  MAY-03-2014 18:00:00      0.000     0.000    0.0209
  
  
  <<< Subcatchment C-5 >>>
  ---------------------------------------------------
  Date        Time        Precip.    Losses    Runoff
                            mm/hr     mm/hr       CMS
  ---------------------------------------------------
  MAY-03-2014 00:15:00      0.000     0.000    0.0000
  MAY-03-2014 00:30:00      0.000     0.000    0.0000
  MAY-03-2014 00:45:00      0.000     0.000    0.0000
  MAY-03-2014 01:00:00      0.000     0.000    0.0000
  MAY-03-2014 01:15:00      0.000     0.000    0.0000
  MAY-03-2014 01:30:00      0.000     0.000    0.0000
  MAY-03-2014 01:45:00      0.000     0.000    0.0000
  MAY-03-2014 02:00:00      0.000     0.000    0.0000
  MAY-03-2014 02:15:00      0.000     0.000    0.0000
  MAY-03-2014 02:30:00      0.000     0.000    0.0000
  MAY-03-2014 02:45:00      0.000     0.000    0.0000
  MAY-03-2014 03:00:00      0.000     0.000    0.0000
  MAY-03-2014 03:15:00      0.000     0.000    0.0000
  MAY-03-2014 03:30:00      0.000     0.000    0.0000
  MAY-03-2014 03:45:00     15.500     1.194    0.0407
  MAY-03-2014 04:00:00     43.500     0.676    0.1782
  MAY-03-2014 04:15:00     53.800     0.486    0.4748
  MAY-03-2014 04:30:00     40.300     0.416    0.5674
  MAY-03-2014 04:45:00      6.900     0.390    0.3726
  MAY-03-2014 05:00:00      2.300     0.381    0.1685
  MAY-03-2014 05:15:00      0.000     0.377    0.0931
  MAY-03-2014 05:30:00      0.000     0.376    0.0556
  MAY-03-2014 05:45:00      0.000     0.375    0.0359
  MAY-03-2014 06:00:00      0.000     0.375    0.0243
  MAY-03-2014 06:15:00      0.000     0.375    0.0170
  MAY-03-2014 06:30:00      0.000     0.375    0.0121
  MAY-03-2014 06:45:00      0.000     0.375    0.0087
  MAY-03-2014 07:00:00      0.000     0.375    0.0063
  MAY-03-2014 07:15:00      0.000     0.375    0.0045
  MAY-03-2014 07:30:00      0.000     0.375    0.0032
  MAY-03-2014 07:45:00      0.000     0.375    0.0022
  MAY-03-2014 08:00:00      0.000     0.375    0.0014
  MAY-03-2014 08:15:00      0.000     0.375    0.0009
  MAY-03-2014 08:30:00      0.000     0.375    0.0005
  MAY-03-2014 08:45:00      0.000     0.375    0.0000
  MAY-03-2014 09:00:00      0.000     0.375    0.0000
  MAY-03-2014 09:15:00      0.000     0.000    0.0000
  MAY-03-2014 09:30:00      0.000     0.000    0.0000
  MAY-03-2014 09:45:00      0.000     0.000    0.0000
  MAY-03-2014 10:00:00      0.000     0.000    0.0000
  MAY-03-2014 10:15:00      0.000     0.000    0.0000
  MAY-03-2014 10:30:00      0.000     0.000    0.0000
  MAY-03-2014 10:45:00      0.000     0.000    0.0000
  MAY-03-2014 11:00:00      0.000     0.000    0.0000
  MAY-03-2014 11:15:00      0.000     0.000    0.0000
  MAY-03-2014 11:30:00      0.000     0.000    0.0000
  MAY-03-2014 11:45:00      0.000     0.000    0.0000
  MAY-03-2014 12:00:00      0.000     0.000    0.0000
  MAY-03-2014 12:15:00      0.000     0.000    0.0000
  MAY-03-2014 12:30:00      0.000     0.000    0.0000
  MAY-03-2014 12:45:00      0.000     0.000    0.0000
  MAY-03-2014 13:00:00      0.000     0.000    0.0000
  MAY-03-2014 13:15:00      0.000     0.000    0.0000
  MAY-03-2014 13:30:00      0.000     0.000    0.0000
  MAY-03-2014 13:45:00      0.000     0.000    0.0000
  MAY-03-2014 14:00:00      0.000     0.000    0.0000
  MAY-03-2014 14:15:00      0.000     0.000    0.0000
  MAY-03-2014 14:30:00      0.000     0.000    0.0000
  MAY-03-2014 14:45:00      0.000     0.000    0.0000
  MAY-03-2014 15:00:00      0.000     0.000    0.0000
  MAY-03-2014 15:15:00      0.000     0.000    0.0000
  MAY-03-2014 15:30:00      0.000     0.000    0.0000
  MAY-03-2014 15:45:00      0.000     0.000    0.0000
  MAY-03-2014 16:00:00      0.000     0.000    0.0000
  MAY-03-2014 16:15:00      0.000     0.000    0.0000
  MAY-03-2014 16:30:00      0.000     0.000    0.0000
  MAY-03-2014 16:45:00      0.000     0.000    0.0000
  MAY-03-2014 17:00:00      0.000     0.000    0.0000
  MAY-03-2014 17:15:00      0.000     0.000    0.0000
  MAY-03-2014 17:30:00      0.000     0.000    0.0000
  MAY-03-2014 17:45:00      0.000     0.000    0.0000
  MAY-03-2014 18:00:00      0.000     0.000    0.0000
  
  
  ************
  Node Results
  ************
  
  <<< Node N-5 >>>
  ----------------------------------------------------------------
                           Inflow  Flooding     Depth      Head
  Date        Time            CMS       CMS    meters    meters
  ----------------------------------------------------------------
  MAY-03-2014 00:15:00      2.000     0.000     0.206  2500.206
  MAY-03-2014 00:30:00      2.000     0.000     0.240  2500.240
  MAY-03-2014 00:45:00      2.000     0.000     0.216  2500.216
  MAY-03-2014 01:00:00      2.000     0.000     0.204  2500.204
  MAY-03-2014 01:15:00      2.000     0.000     0.201  2500.201
  MAY-03-2014 01:30:00      2.000     0.000     0.202  2500.202
  MAY-03-2014 01:45:00      2.000     0.000     0.202  2500.202
  MAY-03-2014 02:00:00      2.000     0.000     0.202  2500.202
  MAY-03-2014 02:15:00      2.000     0.000     0.202  2500.202
  MAY-03-2014 02:30:00      2.000     0.000     0.202  2500.202
  MAY-03-2014 02:45:00      2.000     0.000     0.202  2500.202
  MAY-03-2014 03:00:00      2.000     0.000     0.202  2500.202
  MAY-03-2014 03:15:00      2.000     0.000     0.202  2500.202
  MAY-03-2014 03:30:00      2.000     0.000     0.202  2500.202
  MAY-03-2014 03:45:00      2.094     0.000     0.204  2500.204
  MAY-03-2014 04:00:00      2.827     0.000     0.231  2500.231
  MAY-03-2014 04:15:00      5.438     0.000     0.340  2500.340
  MAY-03-2014 04:30:00      8.363     0.000     0.459  2500.458
  MAY-03-2014 04:45:00      9.935     0.000     0.503  2500.503
  MAY-03-2014 05:00:00     11.064     0.000     0.547  2500.547
  MAY-03-2014 05:15:00      9.872     0.000     0.527  2500.527
  MAY-03-2014 05:30:00      7.838     0.000     0.467  2500.467
  MAY-03-2014 05:45:00      6.296     0.000     0.410  2500.410
  MAY-03-2014 06:00:00      5.272     0.000     0.367  2500.367
  MAY-03-2014 06:15:00      4.566     0.000     0.335  2500.335
  MAY-03-2014 06:30:00      4.052     0.000     0.310  2500.310
  MAY-03-2014 06:45:00      3.671     0.000     0.291  2500.291
  MAY-03-2014 07:00:00      3.381     0.000     0.276  2500.276
  MAY-03-2014 07:15:00      3.155     0.000     0.265  2500.264
  MAY-03-2014 07:30:00      2.977     0.000     0.255  2500.255
  MAY-03-2014 07:45:00      2.834     0.000     0.247  2500.247
  MAY-03-2014 08:00:00      2.717     0.000     0.240  2500.240
  MAY-03-2014 08:15:00      2.621     0.000     0.235  2500.235
  MAY-03-2014 08:30:00      2.542     0.000     0.230  2500.230
  MAY-03-2014 08:45:00      2.475     0.000     0.226  2500.227
  MAY-03-2014 09:00:00      2.418     0.000     0.223  2500.223
  MAY-03-2014 09:15:00      2.370     0.000     0.220  2500.220
  MAY-03-2014 09:30:00      2.329     0.000     0.218  2500.218
  MAY-03-2014 09:45:00      2.293     0.000     0.216  2500.216
  MAY-03-2014 10:00:00      2.263     0.000     0.214  2500.214
  MAY-03-2014 10:15:00      2.236     0.000     0.212  2500.212
  MAY-03-2014 10:30:00      2.214     0.000     0.211  2500.211
  MAY-03-2014 10:45:00      2.194     0.000     0.210  2500.210
  MAY-03-2014 11:00:00      2.176     0.000     0.209  2500.209
  MAY-03-2014 11:15:00      2.160     0.000     0.209  2500.209
  MAY-03-2014 11:30:00      2.146     0.000     0.209  2500.209
  MAY-03-2014 11:45:00      2.134     0.000     0.208  2500.208
  MAY-03-2014 12:00:00      2.123     0.000     0.208  2500.208
  MAY-03-2014 12:15:00      2.113     0.000     0.208  2500.208
  MAY-03-2014 12:30:00      2.104     0.000     0.207  2500.207
  MAY-03-2014 12:45:00      2.096     0.000     0.207  2500.207
  MAY-03-2014 13:00:00      2.089     0.000     0.207  2500.207
  MAY-03-2014 13:15:00      2.083     0.000     0.206  2500.207
  MAY-03-2014 13:30:00      2.078     0.000     0.206  2500.206
  MAY-03-2014 13:45:00      2.073     0.000     0.206  2500.206
  MAY-03-2014 14:00:00      2.069     0.000     0.206  2500.206
  MAY-03-2014 14:15:00      2.065     0.000     0.206  2500.206
  MAY-03-2014 14:30:00      2.061     0.000     0.206  2500.206
  MAY-03-2014 14:45:00      2.058     0.000     0.206  2500.206
  MAY-03-2014 15:00:00      2.055     0.000     0.205  2500.205
  MAY-03-2014 15:15:00      2.052     0.000     0.205  2500.205
  MAY-03-2014 15:30:00      2.049     0.000     0.205  2500.205
  MAY-03-2014 15:45:00      2.047     0.000     0.205  2500.205
  MAY-03-2014 16:00:00      2.044     0.000     0.205  2500.205
  MAY-03-2014 16:15:00      2.042     0.000     0.205  2500.205
  MAY-03-2014 16:30:00      2.040     0.000     0.205  2500.205
  MAY-03-2014 16:45:00      2.038     0.000     0.204  2500.205
  MAY-03-2014 17:00:00      2.037     0.000     0.204  2500.204
  MAY-03-2014 17:15:00      2.035     0.000     0.204  2500.204
  MAY-03-2014 17:30:00      2.033     0.000     0.204  2500.204
  MAY-03-2014 17:45:00      2.032     0.000     0.204  2500.204
  MAY-03-2014 18:00:00      2.031     0.000     0.204  2500.204
  
  
  <<< Node N-6 >>>
  ----------------------------------------------------------------
                           Inflow  Flooding     Depth      Head
  Date        Time            CMS       CMS    meters    meters
  ----------------------------------------------------------------
  MAY-03-2014 00:15:00      0.973     0.000     0.032  2499.022
  MAY-03-2014 00:30:00      2.156     0.000     0.157  2499.146
  MAY-03-2014 00:45:00      2.167     0.000     0.195  2499.185
  MAY-03-2014 01:00:00      2.050     0.000     0.197  2499.187
  MAY-03-2014 01:15:00      2.002     0.000     0.193  2499.184
  MAY-03-2014 01:30:00      1.995     0.000     0.192  2499.182
  MAY-03-2014 01:45:00      1.998     0.000     0.192  2499.182
  MAY-03-2014 02:00:00      2.000     0.000     0.192  2499.182
  MAY-03-2014 02:15:00      2.000     0.000     0.192  2499.182
  MAY-03-2014 02:30:00      2.000     0.000     0.192  2499.182
  MAY-03-2014 02:45:00      2.000     0.000     0.192  2499.182
  MAY-03-2014 03:00:00      2.000     0.000     0.192  2499.182
  MAY-03-2014 03:15:00      2.000     0.000     0.192  2499.182
  MAY-03-2014 03:30:00      2.000     0.000     0.192  2499.182
  MAY-03-2014 03:45:00      2.017     0.000     0.192  2499.182
  MAY-03-2014 04:00:00      2.336     0.000     0.199  2499.189
  MAY-03-2014 04:15:00      4.111     0.000     0.249  2499.239
  MAY-03-2014 04:30:00      8.278     0.000     0.439  2499.429
  MAY-03-2014 04:45:00     10.938     0.000     0.723  2499.713
  MAY-03-2014 05:00:00     13.340     0.000     1.007  2499.998
  MAY-03-2014 05:15:00     12.112     0.000     1.196  2500.186
  MAY-03-2014 05:30:00      9.577     0.000     1.231  2500.221
  MAY-03-2014 05:45:00      7.557     0.000     1.173  2500.163
  MAY-03-2014 06:00:00      6.224     0.000     1.064  2500.054
  MAY-03-2014 06:15:00      5.318     0.000     0.941  2499.931
  MAY-03-2014 06:30:00      4.671     0.000     0.806  2499.796
  MAY-03-2014 06:45:00      4.192     0.000     0.686  2499.676
  MAY-03-2014 07:00:00      3.827     0.000     0.588  2499.578
  MAY-03-2014 07:15:00      3.543     0.000     0.508  2499.498
  MAY-03-2014 07:30:00      3.317     0.000     0.447  2499.438
  MAY-03-2014 07:45:00      3.134     0.000     0.400  2499.390
  MAY-03-2014 08:00:00      2.984     0.000     0.363  2499.353
  MAY-03-2014 08:15:00      2.860     0.000     0.334  2499.324
  MAY-03-2014 08:30:00      2.755     0.000     0.310  2499.300
  MAY-03-2014 08:45:00      2.666     0.000     0.290  2499.281
  MAY-03-2014 09:00:00      2.589     0.000     0.274  2499.264
  MAY-03-2014 09:15:00      2.524     0.000     0.261  2499.251
  MAY-03-2014 09:30:00      2.467     0.000     0.250  2499.240
  MAY-03-2014 09:45:00      2.417     0.000     0.240  2499.230
  MAY-03-2014 10:00:00      2.373     0.000     0.232  2499.222
  MAY-03-2014 10:15:00      2.335     0.000     0.225  2499.215
  MAY-03-2014 10:30:00      2.301     0.000     0.218  2499.208
  MAY-03-2014 10:45:00      2.272     0.000     0.213  2499.203
  MAY-03-2014 11:00:00      2.242     0.000     0.208  2499.198
  MAY-03-2014 11:15:00      2.212     0.000     0.205  2499.195
  MAY-03-2014 11:30:00      2.195     0.000     0.204  2499.194
  MAY-03-2014 11:45:00      2.178     0.000     0.203  2499.193
  MAY-03-2014 12:00:00      2.161     0.000     0.202  2499.192
  MAY-03-2014 12:15:00      2.145     0.000     0.201  2499.191
  MAY-03-2014 12:30:00      2.132     0.000     0.200  2499.190
  MAY-03-2014 12:45:00      2.119     0.000     0.199  2499.189
  MAY-03-2014 13:00:00      2.108     0.000     0.198  2499.188
  MAY-03-2014 13:15:00      2.098     0.000     0.198  2499.188
  MAY-03-2014 13:30:00      2.090     0.000     0.197  2499.187
  MAY-03-2014 13:45:00      2.082     0.000     0.197  2499.187
  MAY-03-2014 14:00:00      2.076     0.000     0.196  2499.187
  MAY-03-2014 14:15:00      2.070     0.000     0.196  2499.186
  MAY-03-2014 14:30:00      2.065     0.000     0.196  2499.186
  MAY-03-2014 14:45:00      2.060     0.000     0.196  2499.186
  MAY-03-2014 15:00:00      2.057     0.000     0.195  2499.185
  MAY-03-2014 15:15:00      2.054     0.000     0.195  2499.185
  MAY-03-2014 15:30:00      2.051     0.000     0.195  2499.185
  MAY-03-2014 15:45:00      2.049     0.000     0.195  2499.185
  MAY-03-2014 16:00:00      2.046     0.000     0.195  2499.185
  MAY-03-2014 16:15:00      2.044     0.000     0.195  2499.185
  MAY-03-2014 16:30:00      2.042     0.000     0.194  2499.184
  MAY-03-2014 16:45:00      2.040     0.000     0.194  2499.184
  MAY-03-2014 17:00:00      2.038     0.000     0.194  2499.184
  MAY-03-2014 17:15:00      2.036     0.000     0.194  2499.184
  MAY-03-2014 17:30:00      2.035     0.000     0.194  2499.184
  MAY-03-2014 17:45:00      2.033     0.000     0.194  2499.184
  MAY-03-2014 18:00:00      2.032     0.000     0.194  2499.184
  
  
  <<< Node N-7 >>>
  ----------------------------------------------------------------
                           Inflow  Flooding     Depth      Head
  Date        Time            CMS       CMS    meters    meters
  ----------------------------------------------------------------
  MAY-03-2014 00:15:00      0.035     0.000     0.002  2498.642
  MAY-03-2014 00:30:00      1.115     0.000     0.108  2498.748
  MAY-03-2014 00:45:00      2.044     0.000     0.415  2499.055
  MAY-03-2014 01:00:00      2.082     0.000     0.491  2499.131
  MAY-03-2014 01:15:00      2.029     0.000     0.485  2499.125
  MAY-03-2014 01:30:00      2.002     0.000     0.480  2499.120
  MAY-03-2014 01:45:00      1.998     0.000     0.477  2499.117
  MAY-03-2014 02:00:00      1.999     0.000     0.477  2499.117
  MAY-03-2014 02:15:00      2.000     0.000     0.477  2499.117
  MAY-03-2014 02:30:00      2.000     0.000     0.477  2499.117
  MAY-03-2014 02:45:00      2.000     0.000     0.477  2499.117
  MAY-03-2014 03:00:00      2.000     0.000     0.477  2499.117
  MAY-03-2014 03:15:00      2.000     0.000     0.477  2499.117
  MAY-03-2014 03:30:00      2.000     0.000     0.477  2499.117
  MAY-03-2014 03:45:00      2.003     0.000     0.477  2499.117
  MAY-03-2014 04:00:00      2.128     0.000     0.485  2499.125
  MAY-03-2014 04:15:00      3.010     0.000     0.555  2499.195
  MAY-03-2014 04:30:00      5.026     0.000     0.763  2499.403
  MAY-03-2014 04:45:00      7.424     0.000     1.061  2499.701
  MAY-03-2014 05:00:00      9.922     0.000     1.350  2499.990
  MAY-03-2014 05:15:00     10.641     0.000     1.548  2500.188
  MAY-03-2014 05:30:00      9.929     0.000     1.594  2500.234
  MAY-03-2014 05:45:00      8.114     0.000     1.522  2500.162
  MAY-03-2014 06:00:00      7.651     0.000     1.414  2500.054
  MAY-03-2014 06:15:00      6.867     0.000     1.281  2499.921
  MAY-03-2014 06:30:00      6.288     0.000     1.156  2499.796
  MAY-03-2014 06:45:00      5.626     0.000     1.032  2499.672
  MAY-03-2014 07:00:00      4.890     0.000     0.927  2499.567
  MAY-03-2014 07:15:00      4.383     0.000     0.846  2499.487
  MAY-03-2014 07:30:00      3.938     0.000     0.783  2499.423
  MAY-03-2014 07:45:00      3.618     0.000     0.734  2499.374
  MAY-03-2014 08:00:00      3.364     0.000     0.695  2499.335
  MAY-03-2014 08:15:00      3.161     0.000     0.663  2499.303
  MAY-03-2014 08:30:00      2.998     0.000     0.638  2499.278
  MAY-03-2014 08:45:00      2.865     0.000     0.617  2499.257
  MAY-03-2014 09:00:00      2.755     0.000     0.599  2499.240
  MAY-03-2014 09:15:00      2.662     0.000     0.585  2499.225
  MAY-03-2014 09:30:00      2.584     0.000     0.572  2499.212
  MAY-03-2014 09:45:00      2.517     0.000     0.561  2499.201
  MAY-03-2014 10:00:00      2.459     0.000     0.552  2499.192
  MAY-03-2014 10:15:00      2.409     0.000     0.544  2499.184
  MAY-03-2014 10:30:00      2.366     0.000     0.537  2499.177
  MAY-03-2014 10:45:00      2.328     0.000     0.531  2499.171
  MAY-03-2014 11:00:00      2.293     0.000     0.525  2499.166
  MAY-03-2014 11:15:00      2.235     0.000     0.518  2499.157
  MAY-03-2014 11:30:00      2.207     0.000     0.512  2499.152
  MAY-03-2014 11:45:00      2.189     0.000     0.508  2499.148
  MAY-03-2014 12:00:00      2.171     0.000     0.505  2499.145
  MAY-03-2014 12:15:00      2.155     0.000     0.503  2499.143
  MAY-03-2014 12:30:00      2.140     0.000     0.500  2499.140
  MAY-03-2014 12:45:00      2.127     0.000     0.498  2499.138
  MAY-03-2014 13:00:00      2.115     0.000     0.496  2499.136
  MAY-03-2014 13:15:00      2.104     0.000     0.494  2499.134
  MAY-03-2014 13:30:00      2.095     0.000     0.493  2499.133
  MAY-03-2014 13:45:00      2.087     0.000     0.491  2499.131
  MAY-03-2014 14:00:00      2.080     0.000     0.490  2499.130
  MAY-03-2014 14:15:00      2.074     0.000     0.489  2499.129
  MAY-03-2014 14:30:00      2.068     0.000     0.488  2499.128
  MAY-03-2014 14:45:00      2.063     0.000     0.487  2499.127
  MAY-03-2014 15:00:00      2.059     0.000     0.487  2499.127
  MAY-03-2014 15:15:00      2.056     0.000     0.486  2499.126
  MAY-03-2014 15:30:00      2.053     0.000     0.486  2499.125
  MAY-03-2014 15:45:00      2.051     0.000     0.485  2499.125
  MAY-03-2014 16:00:00      2.048     0.000     0.485  2499.125
  MAY-03-2014 16:15:00      2.046     0.000     0.484  2499.124
  MAY-03-2014 16:30:00      2.043     0.000     0.484  2499.124
  MAY-03-2014 16:45:00      2.041     0.000     0.484  2499.124
  MAY-03-2014 17:00:00      2.039     0.000     0.483  2499.123
  MAY-03-2014 17:15:00      2.037     0.000     0.483  2499.123
  MAY-03-2014 17:30:00      2.036     0.000     0.483  2499.123
  MAY-03-2014 17:45:00      2.034     0.000     0.482  2499.123
  MAY-03-2014 18:00:00      2.033     0.000     0.482  2499.122
  
  
  <<< Node N-9 >>>
  ----------------------------------------------------------------
                           Inflow  Flooding     Depth      Head
  Date        Time            CMS       CMS    meters    meters
  ----------------------------------------------------------------
  MAY-03-2014 00:15:00      0.000     0.000     0.000  2498.000
  MAY-03-2014 00:30:00      0.073     0.000     0.009  2498.009
  MAY-03-2014 00:45:00      1.399     0.000     0.270  2498.270
  MAY-03-2014 01:00:00      2.060     0.000     0.474  2498.474
  MAY-03-2014 01:15:00      2.055     0.000     0.534  2498.534
  MAY-03-2014 01:30:00      2.017     0.000     0.542  2498.542
  MAY-03-2014 01:45:00      2.002     0.000     0.541  2498.541
  MAY-03-2014 02:00:00      1.999     0.000     0.540  2498.540
  MAY-03-2014 02:15:00      1.999     0.000     0.540  2498.540
  MAY-03-2014 02:30:00      2.000     0.000     0.540  2498.540
  MAY-03-2014 02:45:00      2.000     0.000     0.540  2498.540
  MAY-03-2014 03:00:00      2.000     0.000     0.540  2498.540
  MAY-03-2014 03:15:00      2.000     0.000     0.540  2498.540
  MAY-03-2014 03:30:00      2.000     0.000     0.540  2498.540
  MAY-03-2014 03:45:00      2.001     0.000     0.540  2498.541
  MAY-03-2014 04:00:00      2.047     0.000     0.544  2498.544
  MAY-03-2014 04:15:00      2.491     0.000     0.583  2498.583
  MAY-03-2014 04:30:00      3.865     0.000     0.724  2498.724
  MAY-03-2014 04:45:00      6.258     0.000     0.986  2498.986
  MAY-03-2014 05:00:00      8.491     0.000     1.360  2499.360
  MAY-03-2014 05:15:00     10.484     0.000     1.680  2499.680
  MAY-03-2014 05:30:00      9.732     0.000     1.761  2499.761
  MAY-03-2014 05:45:00      9.618     0.000     1.926  2499.926
  MAY-03-2014 06:00:00      8.314     0.000     1.621  2499.621
  MAY-03-2014 06:15:00      7.598     0.000     1.622  2499.622
  MAY-03-2014 06:30:00      6.701     0.000     1.265  2499.265
  MAY-03-2014 06:45:00      5.961     0.000     1.120  2499.120
  MAY-03-2014 07:00:00      5.275     0.000     1.023  2499.023
  MAY-03-2014 07:15:00      4.650     0.000     0.943  2498.943
  MAY-03-2014 07:30:00      4.158     0.000     0.885  2498.885
  MAY-03-2014 07:45:00      3.784     0.000     0.827  2498.827
  MAY-03-2014 08:00:00      3.495     0.000     0.775  2498.774
  MAY-03-2014 08:15:00      3.268     0.000     0.730  2498.730
  MAY-03-2014 08:30:00      3.085     0.000     0.696  2498.696
  MAY-03-2014 08:45:00      2.936     0.000     0.674  2498.675
  MAY-03-2014 09:00:00      2.814     0.000     0.657  2498.657
  MAY-03-2014 09:15:00      2.713     0.000     0.642  2498.642
  MAY-03-2014 09:30:00      2.627     0.000     0.629  2498.629
  MAY-03-2014 09:45:00      2.554     0.000     0.620  2498.620
  MAY-03-2014 10:00:00      2.491     0.000     0.613  2498.613
  MAY-03-2014 10:15:00      2.437     0.000     0.605  2498.605
  MAY-03-2014 10:30:00      2.390     0.000     0.598  2498.598
  MAY-03-2014 10:45:00      2.349     0.000     0.592  2498.592
  MAY-03-2014 11:00:00      2.313     0.000     0.588  2498.588
  MAY-03-2014 11:15:00      2.262     0.000     0.583  2498.583
  MAY-03-2014 11:30:00      2.223     0.000     0.577  2498.577
  MAY-03-2014 11:45:00      2.200     0.000     0.572  2498.572
  MAY-03-2014 12:00:00      2.181     0.000     0.569  2498.569
  MAY-03-2014 12:15:00      2.164     0.000     0.567  2498.567
  MAY-03-2014 12:30:00      2.149     0.000     0.564  2498.564
  MAY-03-2014 12:45:00      2.135     0.000     0.562  2498.562
  MAY-03-2014 13:00:00      2.122     0.000     0.560  2498.560
  MAY-03-2014 13:15:00      2.110     0.000     0.558  2498.558
  MAY-03-2014 13:30:00      2.100     0.000     0.556  2498.556
  MAY-03-2014 13:45:00      2.092     0.000     0.555  2498.555
  MAY-03-2014 14:00:00      2.084     0.000     0.554  2498.554
  MAY-03-2014 14:15:00      2.077     0.000     0.553  2498.553
  MAY-03-2014 14:30:00      2.071     0.000     0.552  2498.552
  MAY-03-2014 14:45:00      2.066     0.000     0.551  2498.551
  MAY-03-2014 15:00:00      2.062     0.000     0.550  2498.550
  MAY-03-2014 15:15:00      2.058     0.000     0.550  2498.550
  MAY-03-2014 15:30:00      2.055     0.000     0.549  2498.549
  MAY-03-2014 15:45:00      2.052     0.000     0.549  2498.549
  MAY-03-2014 16:00:00      2.049     0.000     0.548  2498.548
  MAY-03-2014 16:15:00      2.047     0.000     0.548  2498.548
  MAY-03-2014 16:30:00      2.045     0.000     0.547  2498.547
  MAY-03-2014 16:45:00      2.042     0.000     0.547  2498.547
  MAY-03-2014 17:00:00      2.040     0.000     0.547  2498.547
  MAY-03-2014 17:15:00      2.038     0.000     0.546  2498.546
  MAY-03-2014 17:30:00      2.037     0.000     0.546  2498.546
  MAY-03-2014 17:45:00      2.035     0.000     0.546  2498.546
  MAY-03-2014 18:00:00      2.034     0.000     0.546  2498.546
  
  
  <<< Node N-13 >>>
  ----------------------------------------------------------------
                           Inflow  Flooding     Depth      Head
  Date        Time            CMS       CMS    meters    meters
  ----------------------------------------------------------------
  MAY-03-2014 00:15:00      0.000     0.000     0.000  2498.000
  MAY-03-2014 00:30:00      0.002     0.000     0.002  2498.001
  MAY-03-2014 00:45:00      0.360     0.000     0.138  2498.138
  MAY-03-2014 01:00:00      0.665     0.000     0.362  2498.362
  MAY-03-2014 01:15:00      0.672     0.000     0.456  2498.456
  MAY-03-2014 01:30:00      0.655     0.000     0.472  2498.472
  MAY-03-2014 01:45:00      0.649     0.000     0.473  2498.473
  MAY-03-2014 02:00:00      0.648     0.000     0.472  2498.472
  MAY-03-2014 02:15:00      0.648     0.000     0.472  2498.472
  MAY-03-2014 02:30:00      0.648     0.000     0.472  2498.472
  MAY-03-2014 02:45:00      0.648     0.000     0.472  2498.472
  MAY-03-2014 03:00:00      0.648     0.000     0.472  2498.472
  MAY-03-2014 03:15:00      0.648     0.000     0.472  2498.472
  MAY-03-2014 03:30:00      0.648     0.000     0.472  2498.472
  MAY-03-2014 03:45:00      0.648     0.000     0.472  2498.472
  MAY-03-2014 04:00:00      0.660     0.000     0.473  2498.473
  MAY-03-2014 04:15:00      0.781     0.000     0.491  2498.491
  MAY-03-2014 04:30:00      1.194     0.000     0.573  2498.573
  MAY-03-2014 04:45:00      1.976     0.000     0.760  2498.760
  MAY-03-2014 05:00:00      3.146     0.000     1.065  2499.065
  MAY-03-2014 05:15:00      3.989     0.000     1.388  2499.388
  MAY-03-2014 05:30:00      3.070     0.000     1.639  2499.639
  MAY-03-2014 05:45:00      4.109     0.000     1.718  2499.718
  MAY-03-2014 06:00:00      2.803     0.000     1.498  2499.499
  MAY-03-2014 06:15:00      3.312     0.000     1.421  2499.421
  MAY-03-2014 06:30:00      2.198     0.000     1.133  2499.133
  MAY-03-2014 06:45:00      1.990     0.000     0.968  2498.968
  MAY-03-2014 07:00:00      1.804     0.000     0.869  2498.869
  MAY-03-2014 07:15:00      1.664     0.000     0.784  2498.784
  MAY-03-2014 07:30:00      1.504     0.000     0.738  2498.738
  MAY-03-2014 07:45:00      1.345     0.000     0.693  2498.693
  MAY-03-2014 08:00:00      1.209     0.000     0.652  2498.652
  MAY-03-2014 08:15:00      1.096     0.000     0.617  2498.617
  MAY-03-2014 08:30:00      1.019     0.000     0.590  2498.590
  MAY-03-2014 08:45:00      0.968     0.000     0.572  2498.572
  MAY-03-2014 09:00:00      0.927     0.000     0.558  2498.558
  MAY-03-2014 09:15:00      0.892     0.000     0.546  2498.546
  MAY-03-2014 09:30:00      0.863     0.000     0.536  2498.536
  MAY-03-2014 09:45:00      0.844     0.000     0.529  2498.529
  MAY-03-2014 10:00:00      0.827     0.000     0.523  2498.523
  MAY-03-2014 10:15:00      0.809     0.000     0.517  2498.517
  MAY-03-2014 10:30:00      0.793     0.000     0.512  2498.511
  MAY-03-2014 10:45:00      0.779     0.000     0.507  2498.507
  MAY-03-2014 11:00:00      0.753     0.000     0.509  2498.509
  MAY-03-2014 11:15:00      0.735     0.000     0.507  2498.507
  MAY-03-2014 11:30:00      0.722     0.000     0.502  2498.502
  MAY-03-2014 11:45:00      0.714     0.000     0.498  2498.498
  MAY-03-2014 12:00:00      0.708     0.000     0.495  2498.495
  MAY-03-2014 12:15:00      0.702     0.000     0.493  2498.493
  MAY-03-2014 12:30:00      0.697     0.000     0.491  2498.491
  MAY-03-2014 12:45:00      0.693     0.000     0.489  2498.489
  MAY-03-2014 13:00:00      0.688     0.000     0.488  2498.488
  MAY-03-2014 13:15:00      0.685     0.000     0.486  2498.486
  MAY-03-2014 13:30:00      0.681     0.000     0.485  2498.485
  MAY-03-2014 13:45:00      0.678     0.000     0.484  2498.484
  MAY-03-2014 14:00:00      0.676     0.000     0.483  2498.483
  MAY-03-2014 14:15:00      0.674     0.000     0.482  2498.482
  MAY-03-2014 14:30:00      0.672     0.000     0.481  2498.481
  MAY-03-2014 14:45:00      0.670     0.000     0.480  2498.480
  MAY-03-2014 15:00:00      0.668     0.000     0.480  2498.480
  MAY-03-2014 15:15:00      0.667     0.000     0.479  2498.479
  MAY-03-2014 15:30:00      0.666     0.000     0.479  2498.479
  MAY-03-2014 15:45:00      0.665     0.000     0.479  2498.479
  MAY-03-2014 16:00:00      0.664     0.000     0.478  2498.478
  MAY-03-2014 16:15:00      0.664     0.000     0.478  2498.478
  MAY-03-2014 16:30:00      0.663     0.000     0.478  2498.478
  MAY-03-2014 16:45:00      0.662     0.000     0.477  2498.477
  MAY-03-2014 17:00:00      0.661     0.000     0.477  2498.477
  MAY-03-2014 17:15:00      0.661     0.000     0.477  2498.477
  MAY-03-2014 17:30:00      0.660     0.000     0.477  2498.477
  MAY-03-2014 17:45:00      0.660     0.000     0.476  2498.476
  MAY-03-2014 18:00:00      0.659     0.000     0.476  2498.476
  
  
  <<< Node N-14 >>>
  ----------------------------------------------------------------
                           Inflow  Flooding     Depth      Head
  Date        Time            CMS       CMS    meters    meters
  ----------------------------------------------------------------
  MAY-03-2014 00:15:00      0.000     0.000     0.000  2498.000
  MAY-03-2014 00:30:00      0.002     0.000     0.002  2498.002
  MAY-03-2014 00:45:00      0.352     0.000     0.147  2498.147
  MAY-03-2014 01:00:00      0.675     0.000     0.357  2498.357
  MAY-03-2014 01:15:00      0.744     0.000     0.430  2498.430
  MAY-03-2014 01:30:00      0.748     0.000     0.442  2498.442
  MAY-03-2014 01:45:00      0.744     0.000     0.442  2498.442
  MAY-03-2014 02:00:00      0.743     0.000     0.441  2498.441
  MAY-03-2014 02:15:00      0.743     0.000     0.441  2498.441
  MAY-03-2014 02:30:00      0.743     0.000     0.441  2498.441
  MAY-03-2014 02:45:00      0.743     0.000     0.441  2498.441
  MAY-03-2014 03:00:00      0.743     0.000     0.441  2498.441
  MAY-03-2014 03:15:00      0.743     0.000     0.441  2498.441
  MAY-03-2014 03:30:00      0.743     0.000     0.441  2498.441
  MAY-03-2014 03:45:00      0.743     0.000     0.441  2498.441
  MAY-03-2014 04:00:00      0.754     0.000     0.443  2498.443
  MAY-03-2014 04:15:00      0.869     0.000     0.460  2498.460
  MAY-03-2014 04:30:00      1.283     0.000     0.541  2498.541
  MAY-03-2014 04:45:00      2.103     0.000     0.716  2498.716
  MAY-03-2014 05:00:00      4.080     0.000     0.737  2498.737
  MAY-03-2014 05:15:00      0.000     0.000     0.802  2498.802
  MAY-03-2014 05:30:00      0.102     0.000     0.872  2498.872
  MAY-03-2014 05:45:00      0.000     0.000     0.709  2498.709
  MAY-03-2014 06:00:00      0.090     0.000     0.851  2498.851
  MAY-03-2014 06:15:00      4.900     0.000     0.694  2498.694
  MAY-03-2014 06:30:00      3.459     0.000     0.825  2498.825
  MAY-03-2014 06:45:00      2.674     0.000     0.792  2498.792
  MAY-03-2014 07:00:00      2.228     0.000     0.755  2498.755
  MAY-03-2014 07:15:00      1.835     0.000     0.735  2498.735
  MAY-03-2014 07:30:00      1.658     0.000     0.693  2498.693
  MAY-03-2014 07:45:00      1.484     0.000     0.652  2498.652
  MAY-03-2014 08:00:00      1.336     0.000     0.614  2498.614
  MAY-03-2014 08:15:00      1.212     0.000     0.582  2498.582
  MAY-03-2014 08:30:00      1.126     0.000     0.556  2498.556
  MAY-03-2014 08:45:00      1.071     0.000     0.539  2498.540
  MAY-03-2014 09:00:00      1.026     0.000     0.527  2498.527
  MAY-03-2014 09:15:00      0.988     0.000     0.516  2498.516
  MAY-03-2014 09:30:00      0.956     0.000     0.507  2498.507
  MAY-03-2014 09:45:00      0.935     0.000     0.499  2498.499
  MAY-03-2014 10:00:00      0.916     0.000     0.494  2498.494
  MAY-03-2014 10:15:00      0.897     0.000     0.489  2498.489
  MAY-03-2014 10:30:00      0.879     0.000     0.483  2498.483
  MAY-03-2014 10:45:00      0.864     0.000     0.479  2498.479
  MAY-03-2014 11:00:00      0.857     0.000     0.476  2498.476
  MAY-03-2014 11:15:00      0.842     0.000     0.473  2498.473
  MAY-03-2014 11:30:00      0.827     0.000     0.468  2498.468
  MAY-03-2014 11:45:00      0.818     0.000     0.465  2498.465
  MAY-03-2014 12:00:00      0.810     0.000     0.462  2498.462
  MAY-03-2014 12:15:00      0.804     0.000     0.460  2498.460
  MAY-03-2014 12:30:00      0.798     0.000     0.459  2498.459
  MAY-03-2014 12:45:00      0.793     0.000     0.457  2498.457
  MAY-03-2014 13:00:00      0.788     0.000     0.456  2498.456
  MAY-03-2014 13:15:00      0.784     0.000     0.454  2498.454
  MAY-03-2014 13:30:00      0.780     0.000     0.453  2498.453
  MAY-03-2014 13:45:00      0.777     0.000     0.452  2498.452
  MAY-03-2014 14:00:00      0.774     0.000     0.451  2498.451
  MAY-03-2014 14:15:00      0.772     0.000     0.450  2498.450
  MAY-03-2014 14:30:00      0.769     0.000     0.450  2498.450
  MAY-03-2014 14:45:00      0.767     0.000     0.449  2498.449
  MAY-03-2014 15:00:00      0.766     0.000     0.448  2498.448
  MAY-03-2014 15:15:00      0.764     0.000     0.448  2498.448
  MAY-03-2014 15:30:00      0.763     0.000     0.448  2498.448
  MAY-03-2014 15:45:00      0.762     0.000     0.447  2498.447
  MAY-03-2014 16:00:00      0.761     0.000     0.447  2498.447
  MAY-03-2014 16:15:00      0.760     0.000     0.447  2498.447
  MAY-03-2014 16:30:00      0.759     0.000     0.446  2498.447
  MAY-03-2014 16:45:00      0.759     0.000     0.446  2498.446
  MAY-03-2014 17:00:00      0.758     0.000     0.446  2498.446
  MAY-03-2014 17:15:00      0.757     0.000     0.446  2498.446
  MAY-03-2014 17:30:00      0.756     0.000     0.446  2498.446
  MAY-03-2014 17:45:00      0.756     0.000     0.445  2498.445
  MAY-03-2014 18:00:00      0.755     0.000     0.445  2498.445
  
  
  <<< Node N-15 >>>
  ----------------------------------------------------------------
                           Inflow  Flooding     Depth      Head
  Date        Time            CMS       CMS    meters    meters
  ----------------------------------------------------------------
  MAY-03-2014 00:15:00      0.000     0.000     0.000  2498.000
  MAY-03-2014 00:30:00      0.002     0.000     0.002  2498.002
  MAY-03-2014 00:45:00      0.323     0.000     0.176  2498.176
  MAY-03-2014 01:00:00      0.564     0.000     0.403  2498.403
  MAY-03-2014 01:15:00      0.611     0.000     0.473  2498.473
  MAY-03-2014 01:30:00      0.613     0.000     0.484  2498.483
  MAY-03-2014 01:45:00      0.610     0.000     0.483  2498.483
  MAY-03-2014 02:00:00      0.609     0.000     0.483  2498.483
  MAY-03-2014 02:15:00      0.609     0.000     0.483  2498.482
  MAY-03-2014 02:30:00      0.609     0.000     0.483  2498.483
  MAY-03-2014 02:45:00      0.609     0.000     0.483  2498.483
  MAY-03-2014 03:00:00      0.609     0.000     0.483  2498.483
  MAY-03-2014 03:15:00      0.609     0.000     0.483  2498.483
  MAY-03-2014 03:30:00      0.609     0.000     0.483  2498.483
  MAY-03-2014 03:45:00      0.609     0.000     0.483  2498.483
  MAY-03-2014 04:00:00      0.619     0.000     0.484  2498.484
  MAY-03-2014 04:15:00      0.729     0.000     0.507  2498.507
  MAY-03-2014 04:30:00      1.105     0.000     0.602  2498.602
  MAY-03-2014 04:45:00      1.826     0.000     0.804  2498.804
  MAY-03-2014 05:00:00      2.864     0.000     1.131  2499.131
  MAY-03-2014 05:15:00      3.846     0.000     1.417  2499.417
  MAY-03-2014 05:30:00      3.227     0.000     1.622  2499.622
  MAY-03-2014 05:45:00      4.502     0.000     1.652  2499.652
  MAY-03-2014 06:00:00      2.969     0.000     1.479  2499.479
  MAY-03-2014 06:15:00      2.870     0.000     1.484  2499.484
  MAY-03-2014 06:30:00      1.919     0.000     1.169  2499.168
  MAY-03-2014 06:45:00      1.664     0.000     1.022  2499.022
  MAY-03-2014 07:00:00      1.449     0.000     0.936  2498.936
  MAY-03-2014 07:15:00      1.223     0.000     0.874  2498.874
  MAY-03-2014 07:30:00      1.072     0.000     0.825  2498.825
  MAY-03-2014 07:45:00      1.027     0.000     0.762  2498.762
  MAY-03-2014 08:00:00      1.012     0.000     0.698  2498.698
  MAY-03-2014 08:15:00      1.013     0.000     0.638  2498.638
  MAY-03-2014 08:30:00      0.972     0.000     0.602  2498.602
  MAY-03-2014 08:45:00      0.923     0.000     0.584  2498.584
  MAY-03-2014 09:00:00      0.883     0.000     0.570  2498.570
  MAY-03-2014 09:15:00      0.850     0.000     0.558  2498.558
  MAY-03-2014 09:30:00      0.822     0.000     0.548  2498.548
  MAY-03-2014 09:45:00      0.781     0.000     0.546  2498.546
  MAY-03-2014 10:00:00      0.758     0.000     0.542  2498.542
  MAY-03-2014 10:15:00      0.741     0.000     0.536  2498.536
  MAY-03-2014 10:30:00      0.726     0.000     0.530  2498.530
  MAY-03-2014 10:45:00      0.713     0.000     0.525  2498.525
  MAY-03-2014 11:00:00      0.707     0.000     0.521  2498.521
  MAY-03-2014 11:15:00      0.694     0.000     0.518  2498.518
  MAY-03-2014 11:30:00      0.681     0.000     0.513  2498.512
  MAY-03-2014 11:45:00      0.673     0.000     0.509  2498.509
  MAY-03-2014 12:00:00      0.667     0.000     0.506  2498.506
  MAY-03-2014 12:15:00      0.661     0.000     0.504  2498.504
  MAY-03-2014 12:30:00      0.656     0.000     0.502  2498.502
  MAY-03-2014 12:45:00      0.652     0.000     0.500  2498.500
  MAY-03-2014 13:00:00      0.648     0.000     0.499  2498.499
  MAY-03-2014 13:15:00      0.644     0.000     0.497  2498.497
  MAY-03-2014 13:30:00      0.641     0.000     0.496  2498.496
  MAY-03-2014 13:45:00      0.638     0.000     0.495  2498.495
  MAY-03-2014 14:00:00      0.636     0.000     0.494  2498.494
  MAY-03-2014 14:15:00      0.633     0.000     0.493  2498.493
  MAY-03-2014 14:30:00      0.631     0.000     0.492  2498.492
  MAY-03-2014 14:45:00      0.630     0.000     0.491  2498.491
  MAY-03-2014 15:00:00      0.628     0.000     0.491  2498.490
  MAY-03-2014 15:15:00      0.627     0.000     0.490  2498.490
  MAY-03-2014 15:30:00      0.626     0.000     0.490  2498.490
  MAY-03-2014 15:45:00      0.625     0.000     0.489  2498.489
  MAY-03-2014 16:00:00      0.624     0.000     0.489  2498.489
  MAY-03-2014 16:15:00      0.624     0.000     0.489  2498.489
  MAY-03-2014 16:30:00      0.623     0.000     0.488  2498.488
  MAY-03-2014 16:45:00      0.622     0.000     0.488  2498.488
  MAY-03-2014 17:00:00      0.622     0.000     0.488  2498.488
  MAY-03-2014 17:15:00      0.621     0.000     0.488  2498.488
  MAY-03-2014 17:30:00      0.620     0.000     0.487  2498.487
  MAY-03-2014 17:45:00      0.620     0.000     0.487  2498.487
  MAY-03-2014 18:00:00      0.619     0.000     0.487  2498.487
  
  
  <<< Node DES-1 >>>
  ----------------------------------------------------------------
                           Inflow  Flooding     Depth      Head
  Date        Time            CMS       CMS    meters    meters
  ----------------------------------------------------------------
  MAY-03-2014 00:15:00      0.000     0.000     0.000  2492.000
  MAY-03-2014 00:30:00      0.000     0.000     0.000  2492.000
  MAY-03-2014 00:45:00      0.000     0.000     0.000  2492.000
  MAY-03-2014 01:00:00      0.004     0.000     0.037  2492.037
  MAY-03-2014 01:15:00      0.052     0.000     0.120  2492.120
  MAY-03-2014 01:30:00      0.163     0.000     0.211  2492.211
  MAY-03-2014 01:45:00      0.300     0.000     0.288  2492.288
  MAY-03-2014 02:00:00      0.424     0.000     0.346  2492.346
  MAY-03-2014 02:15:00      0.521     0.000     0.388  2492.388
  MAY-03-2014 02:30:00      0.591     0.000     0.417  2492.417
  MAY-03-2014 02:45:00      0.640     0.000     0.436  2492.436
  MAY-03-2014 03:00:00      0.674     0.000     0.450  2492.450
  MAY-03-2014 03:15:00      0.697     0.000     0.459  2492.458
  MAY-03-2014 03:30:00      0.712     0.000     0.465  2492.465
  MAY-03-2014 03:45:00      0.722     0.000     0.469  2492.469
  MAY-03-2014 04:00:00      0.729     0.000     0.471  2492.471
  MAY-03-2014 04:15:00      0.739     0.000     0.475  2492.475
  MAY-03-2014 04:30:00      0.782     0.000     0.492  2492.492
  MAY-03-2014 04:45:00      0.940     0.000     0.553  2492.553
  MAY-03-2014 05:00:00      1.234     0.000     0.658  2492.658
  MAY-03-2014 05:15:00      1.421     0.000     0.704  2492.704
  MAY-03-2014 05:30:00      1.472     0.000     0.716  2492.716
  MAY-03-2014 05:45:00      1.504     0.000     0.723  2492.723
  MAY-03-2014 06:00:00      1.554     0.000     0.734  2492.734
  MAY-03-2014 06:15:00      1.595     0.000     0.742  2492.742
  MAY-03-2014 06:30:00      1.628     0.000     0.749  2492.749
  MAY-03-2014 06:45:00      1.656     0.000     0.755  2492.755
  MAY-03-2014 07:00:00      1.678     0.000     0.759  2492.759
  MAY-03-2014 07:15:00      1.697     0.000     0.762  2492.762
  MAY-03-2014 07:30:00      1.709     0.000     0.764  2492.764
  MAY-03-2014 07:45:00      1.706     0.000     0.764  2492.764
  MAY-03-2014 08:00:00      1.689     0.000     0.761  2492.761
  MAY-03-2014 08:15:00      1.663     0.000     0.756  2492.756
  MAY-03-2014 08:30:00      1.627     0.000     0.749  2492.749
  MAY-03-2014 08:45:00      1.587     0.000     0.741  2492.740
  MAY-03-2014 09:00:00      1.544     0.000     0.732  2492.732
  MAY-03-2014 09:15:00      1.501     0.000     0.723  2492.723
  MAY-03-2014 09:30:00      1.459     0.000     0.713  2492.713
  MAY-03-2014 09:45:00      1.445     0.000     0.710  2492.710
  MAY-03-2014 10:00:00      1.361     0.000     0.690  2492.690
  MAY-03-2014 10:15:00      1.254     0.000     0.663  2492.663
  MAY-03-2014 10:30:00      1.151     0.000     0.635  2492.635
  MAY-03-2014 10:45:00      1.064     0.000     0.603  2492.603
  MAY-03-2014 11:00:00      1.005     0.000     0.578  2492.578
  MAY-03-2014 11:15:00      0.956     0.000     0.559  2492.559
  MAY-03-2014 11:30:00      0.919     0.000     0.545  2492.545
  MAY-03-2014 11:45:00      0.890     0.000     0.534  2492.534
  MAY-03-2014 12:00:00      0.866     0.000     0.524  2492.524
  MAY-03-2014 12:15:00      0.848     0.000     0.517  2492.517
  MAY-03-2014 12:30:00      0.834     0.000     0.512  2492.512
  MAY-03-2014 12:45:00      0.822     0.000     0.507  2492.507
  MAY-03-2014 13:00:00      0.813     0.000     0.504  2492.504
  MAY-03-2014 13:15:00      0.805     0.000     0.501  2492.500
  MAY-03-2014 13:30:00      0.798     0.000     0.498  2492.498
  MAY-03-2014 13:45:00      0.792     0.000     0.496  2492.496
  MAY-03-2014 14:00:00      0.787     0.000     0.494  2492.494
  MAY-03-2014 14:15:00      0.783     0.000     0.492  2492.492
  MAY-03-2014 14:30:00      0.779     0.000     0.491  2492.491
  MAY-03-2014 14:45:00      0.776     0.000     0.489  2492.490
  MAY-03-2014 15:00:00      0.773     0.000     0.488  2492.488
  MAY-03-2014 15:15:00      0.771     0.000     0.487  2492.487
  MAY-03-2014 15:30:00      0.769     0.000     0.487  2492.487
  MAY-03-2014 15:45:00      0.767     0.000     0.486  2492.486
  MAY-03-2014 16:00:00      0.765     0.000     0.485  2492.485
  MAY-03-2014 16:15:00      0.764     0.000     0.485  2492.485
  MAY-03-2014 16:30:00      0.763     0.000     0.484  2492.484
  MAY-03-2014 16:45:00      0.762     0.000     0.484  2492.484
  MAY-03-2014 17:00:00      0.761     0.000     0.483  2492.483
  MAY-03-2014 17:15:00      0.760     0.000     0.483  2492.483
  MAY-03-2014 17:30:00      0.759     0.000     0.483  2492.483
  MAY-03-2014 17:45:00      0.758     0.000     0.482  2492.482
  MAY-03-2014 18:00:00      0.757     0.000     0.482  2492.482
  
  
  <<< Node DES-2 >>>
  ----------------------------------------------------------------
                           Inflow  Flooding     Depth      Head
  Date        Time            CMS       CMS    meters    meters
  ----------------------------------------------------------------
  MAY-03-2014 00:15:00      0.000     0.000     0.000  2493.630
  MAY-03-2014 00:30:00      0.000     0.000     0.000  2493.630
  MAY-03-2014 00:45:00      0.000     0.000     0.000  2493.630
  MAY-03-2014 01:00:00      0.021     0.000     0.075  2493.705
  MAY-03-2014 01:15:00      0.217     0.000     0.242  2493.872
  MAY-03-2014 01:30:00      0.463     0.000     0.374  2494.004
  MAY-03-2014 01:45:00      0.578     0.000     0.435  2494.065
  MAY-03-2014 02:00:00      0.620     0.000     0.458  2494.088
  MAY-03-2014 02:15:00      0.636     0.000     0.467  2494.097
  MAY-03-2014 02:30:00      0.643     0.000     0.471  2494.101
  MAY-03-2014 02:45:00      0.646     0.000     0.473  2494.103
  MAY-03-2014 03:00:00      0.647     0.000     0.474  2494.104
  MAY-03-2014 03:15:00      0.648     0.000     0.474  2494.104
  MAY-03-2014 03:30:00      0.648     0.000     0.474  2494.104
  MAY-03-2014 03:45:00      0.648     0.000     0.474  2494.104
  MAY-03-2014 04:00:00      0.648     0.000     0.475  2494.105
  MAY-03-2014 04:15:00      0.656     0.000     0.479  2494.109
  MAY-03-2014 04:30:00      0.712     0.000     0.516  2494.146
  MAY-03-2014 04:45:00      0.797     0.000     0.563  2494.193
  MAY-03-2014 05:00:00      0.999     0.000     0.604  2494.234
  MAY-03-2014 05:15:00      1.112     0.000     0.618  2494.248
  MAY-03-2014 05:30:00      1.069     0.000     0.612  2494.242
  MAY-03-2014 05:45:00      1.259     0.000     0.650  2494.280
  MAY-03-2014 06:00:00      1.117     0.000     0.619  2494.249
  MAY-03-2014 06:15:00      1.128     0.000     0.622  2494.251
  MAY-03-2014 06:30:00      1.254     0.000     0.650  2494.280
  MAY-03-2014 06:45:00      1.303     0.000     0.650  2494.280
  MAY-03-2014 07:00:00      1.344     0.000     0.650  2494.280
  MAY-03-2014 07:15:00      1.350     0.000     0.650  2494.280
  MAY-03-2014 07:30:00      1.350     0.000     0.650  2494.280
  MAY-03-2014 07:45:00      1.350     0.000     0.650  2494.280
  MAY-03-2014 08:00:00      1.350     0.000     0.650  2494.280
  MAY-03-2014 08:15:00      1.345     0.000     0.650  2494.280
  MAY-03-2014 08:30:00      1.333     0.000     0.650  2494.280
  MAY-03-2014 08:45:00      1.317     0.000     0.650  2494.280
  MAY-03-2014 09:00:00      1.300     0.000     0.650  2494.280
  MAY-03-2014 09:15:00      1.281     0.000     0.650  2494.280
  MAY-03-2014 09:30:00      1.261     0.000     0.650  2494.280
  MAY-03-2014 09:45:00      1.240     0.000     0.650  2494.280
  MAY-03-2014 10:00:00      1.220     0.000     0.650  2494.280
  MAY-03-2014 10:15:00      1.199     0.000     0.650  2494.280
  MAY-03-2014 10:30:00      1.177     0.000     0.650  2494.280
  MAY-03-2014 10:45:00      1.042     0.000     0.609  2494.239
  MAY-03-2014 11:00:00      1.018     0.000     0.606  2494.236
  MAY-03-2014 11:15:00      0.990     0.000     0.603  2494.233
  MAY-03-2014 11:30:00      0.962     0.000     0.599  2494.229
  MAY-03-2014 11:45:00      1.120     0.000     0.619  2494.249
  MAY-03-2014 12:00:00      1.040     0.000     0.609  2494.239
  MAY-03-2014 12:15:00      0.997     0.000     0.604  2494.234
  MAY-03-2014 12:30:00      1.066     0.000     0.612  2494.242
  MAY-03-2014 12:45:00      1.126     0.000     0.619  2494.250
  MAY-03-2014 13:00:00      1.128     0.000     0.620  2494.250
  MAY-03-2014 13:15:00      1.058     0.000     0.611  2494.241
  MAY-03-2014 13:30:00      0.996     0.000     0.603  2494.233
  MAY-03-2014 13:45:00      0.941     0.000     0.596  2494.226
  MAY-03-2014 14:00:00      0.893     0.000     0.585  2494.216
  MAY-03-2014 14:15:00      0.852     0.000     0.577  2494.207
  MAY-03-2014 14:30:00      0.817     0.000     0.568  2494.198
  MAY-03-2014 14:45:00      0.787     0.000     0.560  2494.190
  MAY-03-2014 15:00:00      0.788     0.000     0.560  2494.190
  MAY-03-2014 15:15:00      0.762     0.000     0.553  2494.183
  MAY-03-2014 15:30:00      0.724     0.000     0.525  2494.155
  MAY-03-2014 15:45:00      0.697     0.000     0.505  2494.135
  MAY-03-2014 16:00:00      0.681     0.000     0.495  2494.125
  MAY-03-2014 16:15:00      0.672     0.000     0.489  2494.119
  MAY-03-2014 16:30:00      0.668     0.000     0.486  2494.116
  MAY-03-2014 16:45:00      0.665     0.000     0.485  2494.115
  MAY-03-2014 17:00:00      0.664     0.000     0.484  2494.114
  MAY-03-2014 17:15:00      0.663     0.000     0.483  2494.113
  MAY-03-2014 17:30:00      0.662     0.000     0.483  2494.113
  MAY-03-2014 17:45:00      0.661     0.000     0.482  2494.112
  MAY-03-2014 18:00:00      0.660     0.000     0.482  2494.112
  
  
  <<< Node DES-3 >>>
  ----------------------------------------------------------------
                           Inflow  Flooding     Depth      Head
  Date        Time            CMS       CMS    meters    meters
  ----------------------------------------------------------------
  MAY-03-2014 00:15:00      0.000     0.000     0.000  2493.130
  MAY-03-2014 00:30:00      0.000     0.000     0.000  2493.130
  MAY-03-2014 00:45:00      0.000     0.000     0.000  2493.130
  MAY-03-2014 01:00:00      0.022     0.000     0.077  2493.207
  MAY-03-2014 01:15:00      0.178     0.000     0.217  2493.347
  MAY-03-2014 01:30:00      0.384     0.000     0.330  2493.460
  MAY-03-2014 01:45:00      0.508     0.000     0.390  2493.520
  MAY-03-2014 02:00:00      0.564     0.000     0.417  2493.547
  MAY-03-2014 02:15:00      0.589     0.000     0.429  2493.559
  MAY-03-2014 02:30:00      0.600     0.000     0.434  2493.564
  MAY-03-2014 02:45:00      0.605     0.000     0.436  2493.566
  MAY-03-2014 03:00:00      0.607     0.000     0.437  2493.567
  MAY-03-2014 03:15:00      0.608     0.000     0.438  2493.568
  MAY-03-2014 03:30:00      0.608     0.000     0.438  2493.568
  MAY-03-2014 03:45:00      0.609     0.000     0.438  2493.568
  MAY-03-2014 04:00:00      0.609     0.000     0.438  2493.568
  MAY-03-2014 04:15:00      0.617     0.000     0.443  2493.573
  MAY-03-2014 04:30:00      0.683     0.000     0.475  2493.605
  MAY-03-2014 04:45:00      0.873     0.000     0.584  2493.714
  MAY-03-2014 05:00:00      0.977     0.000     0.611  2493.741
  MAY-03-2014 05:15:00      1.181     0.000     0.648  2493.778
  MAY-03-2014 05:30:00      1.396     0.000     0.672  2493.802
  MAY-03-2014 05:45:00      1.189     0.000     0.649  2493.779
  MAY-03-2014 06:00:00      1.390     0.000     0.671  2493.801
  MAY-03-2014 06:15:00      1.365     0.000     0.668  2493.798
  MAY-03-2014 06:30:00      1.282     0.000     0.659  2493.789
  MAY-03-2014 06:45:00      1.170     0.000     0.647  2493.777
  MAY-03-2014 07:00:00      1.351     0.000     0.667  2493.797
  MAY-03-2014 07:15:00      1.225     0.000     0.653  2493.783
  MAY-03-2014 07:30:00      1.220     0.000     0.652  2493.782
  MAY-03-2014 07:45:00      1.181     0.000     0.648  2493.778
  MAY-03-2014 08:00:00      1.210     0.000     0.651  2493.781
  MAY-03-2014 08:15:00      1.270     0.000     0.658  2493.788
  MAY-03-2014 08:30:00      1.257     0.000     0.656  2493.786
  MAY-03-2014 08:45:00      1.324     0.000     0.664  2493.794
  MAY-03-2014 09:00:00      1.259     0.000     0.656  2493.786
  MAY-03-2014 09:15:00      1.238     0.000     0.654  2493.784
  MAY-03-2014 09:30:00      1.216     0.000     0.652  2493.782
  MAY-03-2014 09:45:00      1.191     0.000     0.649  2493.779
  MAY-03-2014 10:00:00      1.294     0.000     0.660  2493.790
  MAY-03-2014 10:15:00      1.223     0.000     0.653  2493.782
  MAY-03-2014 10:30:00      1.210     0.000     0.651  2493.781
  MAY-03-2014 10:45:00      1.387     0.000     0.671  2493.801
  MAY-03-2014 11:00:00      1.332     0.000     0.665  2493.794
  MAY-03-2014 11:15:00      1.279     0.000     0.659  2493.789
  MAY-03-2014 11:30:00      1.228     0.000     0.653  2493.783
  MAY-03-2014 11:45:00      1.179     0.000     0.648  2493.778
  MAY-03-2014 12:00:00      1.131     0.000     0.641  2493.771
  MAY-03-2014 12:15:00      1.085     0.000     0.632  2493.762
  MAY-03-2014 12:30:00      1.042     0.000     0.624  2493.754
  MAY-03-2014 12:45:00      1.002     0.000     0.617  2493.747
  MAY-03-2014 13:00:00      0.963     0.000     0.607  2493.737
  MAY-03-2014 13:15:00      0.927     0.000     0.598  2493.728
  MAY-03-2014 13:30:00      0.894     0.000     0.590  2493.720
  MAY-03-2014 13:45:00      0.891     0.000     0.589  2493.719
  MAY-03-2014 14:00:00      0.809     0.000     0.546  2493.676
  MAY-03-2014 14:15:00      0.727     0.000     0.498  2493.628
  MAY-03-2014 14:30:00      0.679     0.000     0.473  2493.603
  MAY-03-2014 14:45:00      0.654     0.000     0.460  2493.590
  MAY-03-2014 15:00:00      0.641     0.000     0.454  2493.584
  MAY-03-2014 15:15:00      0.634     0.000     0.451  2493.581
  MAY-03-2014 15:30:00      0.630     0.000     0.449  2493.579
  MAY-03-2014 15:45:00      0.628     0.000     0.448  2493.578
  MAY-03-2014 16:00:00      0.627     0.000     0.447  2493.577
  MAY-03-2014 16:15:00      0.625     0.000     0.446  2493.576
  MAY-03-2014 16:30:00      0.624     0.000     0.446  2493.576
  MAY-03-2014 16:45:00      0.624     0.000     0.445  2493.575
[...]
  MAY-03-2014 17:15:00      0.622     2.391     0.448     0.676
  MAY-03-2014 17:30:00      0.622     2.390     0.448     0.676
  MAY-03-2014 17:45:00      0.621     2.390     0.448     0.675
  MAY-03-2014 18:00:00      0.620     2.389     0.447     0.675
  
  
  <<< Link C-11 >>>
  ----------------------------------------------------------------
                             Flow  Velocity     Depth  Capacity/
  Date        Time            CMS     m/sec    meters   Setting 
  ----------------------------------------------------------------
  MAY-03-2014 00:15:00      0.000     0.000     0.001     0.000
  MAY-03-2014 00:30:00      0.073     0.419     0.058     0.029
  MAY-03-2014 00:45:00      1.399     1.363     0.342     0.171
  MAY-03-2014 01:00:00      2.060     1.424     0.482     0.241
  MAY-03-2014 01:15:00      2.055     1.344     0.510     0.255
  MAY-03-2014 01:30:00      2.017     1.316     0.511     0.255
  MAY-03-2014 01:45:00      2.002     1.310     0.509     0.255
  MAY-03-2014 02:00:00      1.999     1.310     0.509     0.254
  MAY-03-2014 02:15:00      1.999     1.310     0.509     0.254
  MAY-03-2014 02:30:00      2.000     1.310     0.509     0.254
  MAY-03-2014 02:45:00      2.000     1.311     0.509     0.254
  MAY-03-2014 03:00:00      2.000     1.310     0.509     0.254
  MAY-03-2014 03:15:00      2.000     1.310     0.509     0.254
  MAY-03-2014 03:30:00      2.000     1.310     0.509     0.254
  MAY-03-2014 03:45:00      2.001     1.311     0.509     0.254
  MAY-03-2014 04:00:00      2.047     1.327     0.514     0.257
  MAY-03-2014 04:15:00      2.491     1.460     0.569     0.284
  MAY-03-2014 04:30:00      3.865     1.733     0.743     0.372
  MAY-03-2014 04:45:00      6.258     2.038     1.024     0.512
  MAY-03-2014 05:00:00      8.491     2.090     1.354     0.677
  MAY-03-2014 05:15:00     10.484     2.164     1.615     0.807
  MAY-03-2014 05:30:00      9.732     1.933     1.678     0.839
  MAY-03-2014 05:45:00      9.618     1.859     1.724     0.862
  MAY-03-2014 06:00:00      8.314     1.825     1.518     0.759
  MAY-03-2014 06:15:00      7.598     1.746     1.451     0.725
  MAY-03-2014 06:30:00      6.701     1.845     1.210     0.605
  MAY-03-2014 06:45:00      5.961     1.846     1.076     0.538
  MAY-03-2014 07:00:00      5.275     1.803     0.975     0.488
  MAY-03-2014 07:15:00      4.650     1.732     0.895     0.447
  MAY-03-2014 07:30:00      4.158     1.662     0.834     0.417
  MAY-03-2014 07:45:00      3.784     1.617     0.780     0.390
  MAY-03-2014 08:00:00      3.495     1.586     0.735     0.367
  MAY-03-2014 08:15:00      3.268     1.564     0.697     0.348
  MAY-03-2014 08:30:00      3.085     1.541     0.667     0.334
  MAY-03-2014 08:45:00      2.936     1.516     0.646     0.323
  MAY-03-2014 09:00:00      2.814     1.493     0.628     0.314
  MAY-03-2014 09:15:00      2.713     1.474     0.613     0.307
  MAY-03-2014 09:30:00      2.627     1.457     0.601     0.300
  MAY-03-2014 09:45:00      2.554     1.441     0.591     0.295
  MAY-03-2014 10:00:00      2.491     1.425     0.583     0.291
  MAY-03-2014 10:15:00      2.437     1.414     0.575     0.287
  MAY-03-2014 10:30:00      2.390     1.404     0.568     0.284
  MAY-03-2014 10:45:00      2.349     1.395     0.561     0.281
  MAY-03-2014 11:00:00      2.313     1.385     0.557     0.278
  MAY-03-2014 11:15:00      2.262     1.370     0.550     0.275
  MAY-03-2014 11:30:00      2.223     1.362     0.544     0.272
  MAY-03-2014 11:45:00      2.200     1.357     0.540     0.270
  MAY-03-2014 12:00:00      2.181     1.353     0.537     0.269
  MAY-03-2014 12:15:00      2.164     1.349     0.535     0.267
  MAY-03-2014 12:30:00      2.149     1.346     0.532     0.266
  MAY-03-2014 12:45:00      2.135     1.342     0.530     0.265
  MAY-03-2014 13:00:00      2.122     1.340     0.528     0.264
  MAY-03-2014 13:15:00      2.110     1.337     0.526     0.263
  MAY-03-2014 13:30:00      2.100     1.335     0.525     0.262
  MAY-03-2014 13:45:00      2.092     1.333     0.523     0.262
  MAY-03-2014 14:00:00      2.084     1.331     0.522     0.261
  MAY-03-2014 14:15:00      2.077     1.329     0.521     0.260
  MAY-03-2014 14:30:00      2.071     1.328     0.520     0.260
  MAY-03-2014 14:45:00      2.066     1.326     0.519     0.260
  MAY-03-2014 15:00:00      2.062     1.325     0.518     0.259
  MAY-03-2014 15:15:00      2.058     1.325     0.518     0.259
  MAY-03-2014 15:30:00      2.055     1.324     0.517     0.259
  MAY-03-2014 15:45:00      2.052     1.323     0.517     0.258
  MAY-03-2014 16:00:00      2.049     1.323     0.516     0.258
  MAY-03-2014 16:15:00      2.047     1.322     0.516     0.258
  MAY-03-2014 16:30:00      2.045     1.321     0.516     0.258
  MAY-03-2014 16:45:00      2.042     1.321     0.515     0.258
  MAY-03-2014 17:00:00      2.040     1.320     0.515     0.258
  MAY-03-2014 17:15:00      2.038     1.320     0.515     0.257
  MAY-03-2014 17:30:00      2.037     1.320     0.514     0.257
  MAY-03-2014 17:45:00      2.035     1.319     0.514     0.257
  MAY-03-2014 18:00:00      2.034     1.319     0.514     0.257
  
  
  <<< Link R-4 >>>
  ----------------------------------------------------------------
                             Flow  Velocity     Depth  Capacity/
  Date        Time            CMS     m/sec    meters   Setting 
  ----------------------------------------------------------------
  MAY-03-2014 00:15:00      0.000     0.000     0.000     1.000
  MAY-03-2014 00:30:00      0.002     0.000     0.009     1.000
  MAY-03-2014 00:45:00      0.352     0.000     0.270     1.000
  MAY-03-2014 01:00:00      0.675     0.000     0.474     1.000
  MAY-03-2014 01:15:00      0.744     0.000     0.534     1.000
  MAY-03-2014 01:30:00      0.748     0.000     0.542     1.000
  MAY-03-2014 01:45:00      0.744     0.000     0.541     1.000
  MAY-03-2014 02:00:00      0.743     0.000     0.540     1.000
  MAY-03-2014 02:15:00      0.743     0.000     0.540     1.000
  MAY-03-2014 02:30:00      0.743     0.000     0.540     1.000
  MAY-03-2014 02:45:00      0.743     0.000     0.540     1.000
  MAY-03-2014 03:00:00      0.743     0.000     0.540     1.000
  MAY-03-2014 03:15:00      0.743     0.000     0.540     1.000
  MAY-03-2014 03:30:00      0.743     0.000     0.540     1.000
  MAY-03-2014 03:45:00      0.743     0.000     0.540     1.000
  MAY-03-2014 04:00:00      0.754     0.000     0.544     1.000
  MAY-03-2014 04:15:00      0.869     0.000     0.582     1.000
  MAY-03-2014 04:30:00      1.283     0.000     0.724     1.000
  MAY-03-2014 04:45:00      2.103     0.000     0.986     1.000
  MAY-03-2014 05:00:00      4.080     0.000     1.359     1.000
  MAY-03-2014 05:15:00      0.000     0.000     1.571     0.000
  MAY-03-2014 05:30:00      0.102     0.000     1.737     0.000
  MAY-03-2014 05:45:00      0.000     0.000     1.728     0.000
  MAY-03-2014 06:00:00      0.090     0.000     1.615     0.000
  MAY-03-2014 06:15:00      4.900     0.000     1.601     1.000
  MAY-03-2014 06:30:00      3.459     0.000     1.265     1.000
  MAY-03-2014 06:45:00      2.674     0.000     1.120     1.000
  MAY-03-2014 07:00:00      2.228     0.000     1.024     1.000
  MAY-03-2014 07:15:00      1.835     0.000     0.943     1.000
  MAY-03-2014 07:30:00      1.658     0.000     0.885     1.000
  MAY-03-2014 07:45:00      1.484     0.000     0.827     1.000
  MAY-03-2014 08:00:00      1.336     0.000     0.775     1.000
  MAY-03-2014 08:15:00      1.212     0.000     0.730     1.000
  MAY-03-2014 08:30:00      1.126     0.000     0.696     1.000
  MAY-03-2014 08:45:00      1.071     0.000     0.674     1.000
  MAY-03-2014 09:00:00      1.026     0.000     0.657     1.000
  MAY-03-2014 09:15:00      0.988     0.000     0.642     1.000
  MAY-03-2014 09:30:00      0.956     0.000     0.629     1.000
  MAY-03-2014 09:45:00      0.935     0.000     0.620     1.000
  MAY-03-2014 10:00:00      0.916     0.000     0.613     1.000
  MAY-03-2014 10:15:00      0.897     0.000     0.605     1.000
  MAY-03-2014 10:30:00      0.879     0.000     0.598     1.000
  MAY-03-2014 10:45:00      0.864     0.000     0.592     1.000
  MAY-03-2014 11:00:00      0.857     0.000     0.588     1.000
  MAY-03-2014 11:15:00      0.842     0.000     0.583     1.000
  MAY-03-2014 11:30:00      0.827     0.000     0.577     1.000
  MAY-03-2014 11:45:00      0.818     0.000     0.572     1.000
  MAY-03-2014 12:00:00      0.810     0.000     0.569     1.000
  MAY-03-2014 12:15:00      0.804     0.000     0.567     1.000
  MAY-03-2014 12:30:00      0.798     0.000     0.564     1.000
  MAY-03-2014 12:45:00      0.793     0.000     0.562     1.000
  MAY-03-2014 13:00:00      0.788     0.000     0.560     1.000
  MAY-03-2014 13:15:00      0.784     0.000     0.558     1.000
  MAY-03-2014 13:30:00      0.780     0.000     0.556     1.000
  MAY-03-2014 13:45:00      0.777     0.000     0.555     1.000
  MAY-03-2014 14:00:00      0.774     0.000     0.554     1.000
  MAY-03-2014 14:15:00      0.772     0.000     0.553     1.000
  MAY-03-2014 14:30:00      0.769     0.000     0.552     1.000
  MAY-03-2014 14:45:00      0.767     0.000     0.551     1.000
  MAY-03-2014 15:00:00      0.766     0.000     0.550     1.000
  MAY-03-2014 15:15:00      0.764     0.000     0.550     1.000
  MAY-03-2014 15:30:00      0.763     0.000     0.549     1.000
  MAY-03-2014 15:45:00      0.762     0.000     0.549     1.000
  MAY-03-2014 16:00:00      0.761     0.000     0.548     1.000
  MAY-03-2014 16:15:00      0.760     0.000     0.548     1.000
  MAY-03-2014 16:30:00      0.759     0.000     0.547     1.000
  MAY-03-2014 16:45:00      0.759     0.000     0.547     1.000
  MAY-03-2014 17:00:00      0.758     0.000     0.547     1.000
  MAY-03-2014 17:15:00      0.757     0.000     0.546     1.000
  MAY-03-2014 17:30:00      0.756     0.000     0.546     1.000
  MAY-03-2014 17:45:00      0.756     0.000     0.546     1.000
  MAY-03-2014 18:00:00      0.755     0.000     0.546     1.000
  
  
  <<< Link R-5 >>>
  ----------------------------------------------------------------
                             Flow  Velocity     Depth  Capacity/
  Date        Time            CMS     m/sec    meters   Setting 
  ----------------------------------------------------------------
  MAY-03-2014 00:15:00      0.000     0.000     0.000     1.000
  MAY-03-2014 00:30:00      0.002     0.000     0.009     1.000
  MAY-03-2014 00:45:00      0.360     0.000     0.270     1.000
  MAY-03-2014 01:00:00      0.665     0.000     0.474     1.000
  MAY-03-2014 01:15:00      0.672     0.000     0.534     1.000
  MAY-03-2014 01:30:00      0.655     0.000     0.542     1.000
  MAY-03-2014 01:45:00      0.649     0.000     0.541     1.000
  MAY-03-2014 02:00:00      0.648     0.000     0.540     1.000
  MAY-03-2014 02:15:00      0.648     0.000     0.540     1.000
  MAY-03-2014 02:30:00      0.648     0.000     0.540     1.000
  MAY-03-2014 02:45:00      0.648     0.000     0.540     1.000
  MAY-03-2014 03:00:00      0.648     0.000     0.540     1.000
  MAY-03-2014 03:15:00      0.648     0.000     0.540     1.000
  MAY-03-2014 03:30:00      0.648     0.000     0.540     1.000
  MAY-03-2014 03:45:00      0.648     0.000     0.540     1.000
  MAY-03-2014 04:00:00      0.660     0.000     0.544     1.000
  MAY-03-2014 04:15:00      0.781     0.000     0.582     1.000
  MAY-03-2014 04:30:00      1.194     0.000     0.724     1.000
  MAY-03-2014 04:45:00      1.976     0.000     0.986     1.000
  MAY-03-2014 05:00:00      3.146     0.000     1.359     1.000
  MAY-03-2014 05:15:00      3.989     0.000     1.682     1.000
  MAY-03-2014 05:30:00      3.070     0.000     1.762     1.000
  MAY-03-2014 05:45:00      4.109     0.000     1.927     1.000
  MAY-03-2014 06:00:00      2.803     0.000     1.621     1.000
  MAY-03-2014 06:15:00      3.312     0.000     1.621     1.000
  MAY-03-2014 06:30:00      2.198     0.000     1.265     1.000
  MAY-03-2014 06:45:00      1.990     0.000     1.120     1.000
  MAY-03-2014 07:00:00      1.804     0.000     1.024     1.000
  MAY-03-2014 07:15:00      1.664     0.000     0.943     1.000
  MAY-03-2014 07:30:00      1.504     0.000     0.885     1.000
  MAY-03-2014 07:45:00      1.345     0.000     0.827     1.000
  MAY-03-2014 08:00:00      1.209     0.000     0.775     1.000
  MAY-03-2014 08:15:00      1.096     0.000     0.730     1.000
  MAY-03-2014 08:30:00      1.019     0.000     0.696     1.000
  MAY-03-2014 08:45:00      0.968     0.000     0.674     1.000
  MAY-03-2014 09:00:00      0.927     0.000     0.657     1.000
  MAY-03-2014 09:15:00      0.892     0.000     0.642     1.000
  MAY-03-2014 09:30:00      0.863     0.000     0.629     1.000
  MAY-03-2014 09:45:00      0.844     0.000     0.620     1.000
  MAY-03-2014 10:00:00      0.827     0.000     0.613     1.000
  MAY-03-2014 10:15:00      0.809     0.000     0.605     1.000
  MAY-03-2014 10:30:00      0.793     0.000     0.598     1.000
  MAY-03-2014 10:45:00      0.779     0.000     0.592     1.000
  MAY-03-2014 11:00:00      0.753     0.000     0.588     1.000
  MAY-03-2014 11:15:00      0.735     0.000     0.583     1.000
  MAY-03-2014 11:30:00      0.722     0.000     0.577     1.000
  MAY-03-2014 11:45:00      0.714     0.000     0.572     1.000
  MAY-03-2014 12:00:00      0.708     0.000     0.569     1.000
  MAY-03-2014 12:15:00      0.702     0.000     0.567     1.000
  MAY-03-2014 12:30:00      0.697     0.000     0.564     1.000
  MAY-03-2014 12:45:00      0.693     0.000     0.562     1.000
  MAY-03-2014 13:00:00      0.688     0.000     0.560     1.000
  MAY-03-2014 13:15:00      0.685     0.000     0.558     1.000
  MAY-03-2014 13:30:00      0.681     0.000     0.556     1.000
  MAY-03-2014 13:45:00      0.678     0.000     0.555     1.000
  MAY-03-2014 14:00:00      0.676     0.000     0.554     1.000
  MAY-03-2014 14:15:00      0.674     0.000     0.553     1.000
  MAY-03-2014 14:30:00      0.672     0.000     0.552     1.000
  MAY-03-2014 14:45:00      0.670     0.000     0.551     1.000
  MAY-03-2014 15:00:00      0.668     0.000     0.550     1.000
  MAY-03-2014 15:15:00      0.667     0.000     0.550     1.000
  MAY-03-2014 15:30:00      0.666     0.000     0.549     1.000
  MAY-03-2014 15:45:00      0.665     0.000     0.549     1.000
  MAY-03-2014 16:00:00      0.664     0.000     0.548     1.000
  MAY-03-2014 16:15:00      0.664     0.000     0.548     1.000
  MAY-03-2014 16:30:00      0.663     0.000     0.547     1.000
  MAY-03-2014 16:45:00      0.662     0.000     0.547     1.000
  MAY-03-2014 17:00:00      0.661     0.000     0.547     1.000
  MAY-03-2014 17:15:00      0.661     0.000     0.546     1.000
  MAY-03-2014 17:30:00      0.660     0.000     0.546     1.000
  MAY-03-2014 17:45:00      0.660     0.000     0.546     1.000
  MAY-03-2014 18:00:00      0.659     0.000     0.546     1.000
  
  
  <<< Link R-6 >>>
  ----------------------------------------------------------------
                             Flow  Velocity     Depth  Capacity/
  Date        Time            CMS     m/sec    meters   Setting 
  ----------------------------------------------------------------
  MAY-03-2014 00:15:00      0.000     0.000     0.000     1.000
  MAY-03-2014 00:30:00      0.002     0.000     0.009     1.000
  MAY-03-2014 00:45:00      0.323     0.000     0.270     1.000
  MAY-03-2014 01:00:00      0.564     0.000     0.474     1.000
  MAY-03-2014 01:15:00      0.611     0.000     0.534     1.000
  MAY-03-2014 01:30:00      0.613     0.000     0.542     1.000
  MAY-03-2014 01:45:00      0.610     0.000     0.541     1.000
  MAY-03-2014 02:00:00      0.609     0.000     0.540     1.000
  MAY-03-2014 02:15:00      0.609     0.000     0.540     1.000
  MAY-03-2014 02:30:00      0.609     0.000     0.540     1.000
  MAY-03-2014 02:45:00      0.609     0.000     0.540     1.000
  MAY-03-2014 03:00:00      0.609     0.000     0.540     1.000
  MAY-03-2014 03:15:00      0.609     0.000     0.540     1.000
  MAY-03-2014 03:30:00      0.609     0.000     0.540     1.000
  MAY-03-2014 03:45:00      0.609     0.000     0.540     1.000
  MAY-03-2014 04:00:00      0.619     0.000     0.544     1.000
  MAY-03-2014 04:15:00      0.729     0.000     0.582     1.000
  MAY-03-2014 04:30:00      1.105     0.000     0.724     1.000
  MAY-03-2014 04:45:00      1.826     0.000     0.986     1.000
  MAY-03-2014 05:00:00      2.864     0.000     1.359     1.000
  MAY-03-2014 05:15:00      3.846     0.000     1.682     1.000
  MAY-03-2014 05:30:00      3.227     0.000     1.762     1.000
  MAY-03-2014 05:45:00      4.502     0.000     1.927     1.000
  MAY-03-2014 06:00:00      2.969     0.000     1.621     1.000
  MAY-03-2014 06:15:00      2.870     0.000     1.622     1.000
  MAY-03-2014 06:30:00      1.919     0.000     1.265     1.000
  MAY-03-2014 06:45:00      1.664     0.000     1.120     1.000
  MAY-03-2014 07:00:00      1.449     0.000     1.024     1.000
  MAY-03-2014 07:15:00      1.223     0.000     0.943     1.000
  MAY-03-2014 07:30:00      1.072     0.000     0.885     1.000
  MAY-03-2014 07:45:00      1.027     0.000     0.827     1.000
  MAY-03-2014 08:00:00      1.012     0.000     0.775     1.000
  MAY-03-2014 08:15:00      1.013     0.000     0.730     1.000
  MAY-03-2014 08:30:00      0.972     0.000     0.696     1.000
  MAY-03-2014 08:45:00      0.923     0.000     0.674     1.000
  MAY-03-2014 09:00:00      0.883     0.000     0.657     1.000
  MAY-03-2014 09:15:00      0.850     0.000     0.642     1.000
  MAY-03-2014 09:30:00      0.822     0.000     0.629     1.000
  MAY-03-2014 09:45:00      0.781     0.000     0.620     1.000
  MAY-03-2014 10:00:00      0.758     0.000     0.613     1.000
  MAY-03-2014 10:15:00      0.741     0.000     0.605     1.000
  MAY-03-2014 10:30:00      0.726     0.000     0.598     1.000
  MAY-03-2014 10:45:00      0.713     0.000     0.592     1.000
  MAY-03-2014 11:00:00      0.707     0.000     0.588     1.000
  MAY-03-2014 11:15:00      0.694     0.000     0.583     1.000
  MAY-03-2014 11:30:00      0.681     0.000     0.577     1.000
  MAY-03-2014 11:45:00      0.673     0.000     0.572     1.000
  MAY-03-2014 12:00:00      0.667     0.000     0.569     1.000
  MAY-03-2014 12:15:00      0.661     0.000     0.567     1.000
  MAY-03-2014 12:30:00      0.656     0.000     0.564     1.000
  MAY-03-2014 12:45:00      0.652     0.000     0.562     1.000
  MAY-03-2014 13:00:00      0.648     0.000     0.560     1.000
  MAY-03-2014 13:15:00      0.644     0.000     0.558     1.000
  MAY-03-2014 13:30:00      0.641     0.000     0.556     1.000
  MAY-03-2014 13:45:00      0.638     0.000     0.555     1.000
  MAY-03-2014 14:00:00      0.636     0.000     0.554     1.000
  MAY-03-2014 14:15:00      0.633     0.000     0.553     1.000
  MAY-03-2014 14:30:00      0.631     0.000     0.552     1.000
  MAY-03-2014 14:45:00      0.630     0.000     0.551     1.000
  MAY-03-2014 15:00:00      0.628     0.000     0.550     1.000
  MAY-03-2014 15:15:00      0.627     0.000     0.550     1.000
  MAY-03-2014 15:30:00      0.626     0.000     0.549     1.000
  MAY-03-2014 15:45:00      0.625     0.000     0.549     1.000
  MAY-03-2014 16:00:00      0.624     0.000     0.548     1.000
  MAY-03-2014 16:15:00      0.624     0.000     0.548     1.000
  MAY-03-2014 16:30:00      0.623     0.000     0.547     1.000
  MAY-03-2014 16:45:00      0.622     0.000     0.547     1.000
  MAY-03-2014 17:00:00      0.622     0.000     0.547     1.000
  MAY-03-2014 17:15:00      0.621     0.000     0.546     1.000
  MAY-03-2014 17:30:00      0.620     0.000     0.546     1.000
  MAY-03-2014 17:45:00      0.620     0.000     0.546     1.000
  MAY-03-2014 18:00:00      0.619     0.000     0.546     1.000
  

  Analysis begun on:  Tue Nov 10 14:41:02 2015
  Analysis ended on:  Tue Nov 10 14:41:03 2015
  Total elapsed time: 00:00:01